version 2
run CloserMatrix-0-20200526-16:09:28-7827
attr configname CloserMatrix
attr datetime 20200526-16:09:28
attr experiment CloserMatrix
attr inifile omnetpp.ini
attr iterationvars ""
attr iterationvarsf ""
attr measurement ""
attr network NetworkModified
attr processid 7827
attr repetition 0
attr replication #0
attr resultdir results
attr runnumber 0
attr seedset 0
param **.host[0].mobility.initialX 100m
param **.host[0].mobility.initialY 100m
param **.host[1].mobility.initialX 100m
param **.host[1].mobility.initialY 250m
param **.host[2].mobility.initialX 100m
param **.host[2].mobility.initialY 400m
param **.host[3].mobility.initialX 100m
param **.host[3].mobility.initialY 550m
param **.host[4].mobility.initialX 110m
param **.host[4].mobility.initialY 100m
param **.host[5].mobility.initialX 120m
param **.host[5].mobility.initialY 100m
param **.host[6].mobility.initialX 130m
param **.host[6].mobility.initialY 100m
param **.host[7].mobility.initialX 110m
param **.host[7].mobility.initialY 250m
param **.host[8].mobility.initialX 120m
param **.host[8].mobility.initialY 250m
param **.host[9].mobility.initialX 130m
param **.host[9].mobility.initialY 250m
param **.host[10].mobility.initialX 110m
param **.host[10].mobility.initialY 400m
param **.host[11].mobility.initialX 120m
param **.host[11].mobility.initialY 400m
param **.host[12].mobility.initialX 130m
param **.host[12].mobility.initialY 400m
param **.host[13].mobility.initialX 110m
param **.host[13].mobility.initialY 550m
param **.host[14].mobility.initialX 120m
param **.host[14].mobility.initialY 550m
param **.host[15].mobility.initialX 130m
param **.host[15].mobility.initialY 550m
param **.host[16].mobility.initialX 140m
param **.host[16].mobility.initialY 100m
param **.host[17].mobility.initialX 140m
param **.host[17].mobility.initialY 250m
param **.host[18].mobility.initialX 140m
param **.host[18].mobility.initialY 400m
param **.host[19].mobility.initialX 140m
param **.host[19].mobility.initialY 550m
param **.host[0..3].mobility.typename "\"MassMobility\""
param **.host[0..3].mobility.initFromDisplayString false
param **.host[0..3].mobility.changeInterval "truncnormal(2s, 0.5s)"
param **.host[0..3].mobility.angleDelta "normal(0deg, 30deg)"
param **.host[0..3].mobility.speed "truncnormal(20mps, 8mps)"
param **.host[0..3].mobility.updateInterval 100ms
param **.host[4..19].mobility.typename "\"StationaryMobility\""
param **.host[4..19].mobility.initFromDisplayString false
param **.number 20
param **.networkConfiguratorModule "\"networkConfigurator\""
param **.networkConfigurator.config "xmldoc(\"lessnodes.xml\")"
param **.host[*].hasIpv4 false
param **.host[*].hasIpv6 false
param **.host[*].hasGn true
param **.host[*].generic.typename "\"NextHopNetworkLayer\""
param **.host[*].generic.nextHop.hopLimit 4
param **.numApps 1
param **.radioMedium.pathLoss.typename "\"LogNormalShadowing\""
param **.radioMedium.pathLoss.alpha 4.03
param **.radioMedium.pathLoss.sigma 4.98
param **.networkConfigurator.typename "\"NextHopNetworkConfigurator\""
param *.host[*].wlan[2].radio.displayCommunicationRange true
param *.visualizer.sceneVisualizer.descriptionFigure "\"title\""
param *.visualizer.mediumVisualizer.displaySignals true
param *.visualizer.physicalLinkVisualizer.displayLinks true
param *.host[*].wlan[0].radio.transmitter.communicationRange 200m
param *.host[*].wlan[0].radio.displayCommunicationRange true
param **.host[4..19].app[0].typename "\"UdpSink\""
param **.host[4..19].app[0].localPort 7654
param **.host[0..3].app[0].typename "\"UdpBasicApp\""
param **.host[0..3].app[0].destPort 7654
param **.host[0].app[0].destAddresses "\"host[16]\""
param **.host[1].app[0].destAddresses "\"host[17]\""
param **.host[2].app[0].destAddresses "\"host[18]\""
param **.host[3].app[0].destAddresses "\"host[19]\""
param **.host[0..3].app[0].messageLength 100B
param **.host[0..3].app[0].startTime "uniform(0s, 10ms)"
param **.host[0..3].app[0].sendInterval 20ms
param **.host[0].app[0].packetName "\"UDP_Data_Sender0\""
param **.host[1].app[0].packetName "\"UDP_Data_Sender1\""
param **.host[2].app[0].packetName "\"UDP_Data_Sender2\""
param **.host[3].app[0].packetName "\"UDP_Data_Sender3\""
param **.host[0].generic.nextHop.nextHopParam "\"host[4].wlan[0]\""
param **.host[1].generic.nextHop.nextHopParam "\"host[7].wlan[0]\""
param **.host[2].generic.nextHop.nextHopParam "\"host[10].wlan[0]\""
param **.host[3].generic.nextHop.nextHopParam "\"host[13].wlan[0]\""
param **.host[4].generic.nextHop.nextHopParam "\"host[5].wlan[0]\""
param **.host[5].generic.nextHop.nextHopParam "\"host[6].wlan[0]\""
param **.host[6].generic.nextHop.nextHopParam "\"host[16].wlan[0]\""
param **.host[7].generic.nextHop.nextHopParam "\"host[8].wlan[0]\""
param **.host[8].generic.nextHop.nextHopParam "\"host[9].wlan[0]\""
param **.host[9].generic.nextHop.nextHopParam "\"host[17].wlan[0]\""
param **.host[10].generic.nextHop.nextHopParam "\"host[11].wlan[0]\""
param **.host[11].generic.nextHop.nextHopParam "\"host[12].wlan[0]\""
param **.host[12].generic.nextHop.nextHopParam "\"host[18].wlan[0]\""
param **.host[13].generic.nextHop.nextHopParam "\"host[14].wlan[0]\""
param **.host[14].generic.nextHop.nextHopParam "\"host[15].wlan[0]\""
param **.host[15].generic.nextHop.nextHopParam "\"host[19].wlan[0]\""
param **.host[16].generic.nextHop.nextHopParam "\"host[16].wlan[0]\""
param **.host[17].generic.nextHop.nextHopParam "\"host[17].wlan[0]\""
param **.host[18].generic.nextHop.nextHopParam "\"host[18].wlan[0]\""
param **.host[19].generic.nextHop.nextHopParam "\"host[19].wlan[0]\""
param **.host[*].mobility.initialZ 0m
param **.constraintAreaMaxX 1000m
param **.constraintAreaMaxY 1000m
param **.constraintAreaMaxZ 0m
param **.constraintAreaMinX 0m
param **.constraintAreaMinY 0m
param **.constraintAreaMinZ 0m

scalar NetworkModified.radioMedium.propagation "Arrival computation count" 125837
scalar NetworkModified.radioMedium "transmission count" 6623
scalar NetworkModified.radioMedium "signal send count" 125837
scalar NetworkModified.radioMedium "reception computation count" 125824
scalar NetworkModified.radioMedium "interference computation count" 376777
scalar NetworkModified.radioMedium "reception decision computation count" 9660
scalar NetworkModified.radioMedium "listening decision computation count" 242192
scalar NetworkModified.radioMedium "reception cache hit" 71.162449578291
attr unit %
scalar NetworkModified.radioMedium "interference cache hit" 66.666666666667
attr unit %
scalar NetworkModified.radioMedium "noise cache hit" 0
attr unit %
scalar NetworkModified.radioMedium "snir cache hit" 50
attr unit %
scalar NetworkModified.radioMedium "reception decision cache hit" 50
attr unit %
scalar NetworkModified.radioMedium "reception result cache hit" 0
attr unit %
scalar NetworkModified.host[0].lo[0].lo rcvdPkFromHl:count 0
attr interpolationmode none
attr source packetReceivedFromUpper
attr title "packets received from higher layer, count"
scalar NetworkModified.host[0].lo[0].lo rcvdPkFromHl:sum(packetBytes) 0
attr interpolationmode none
attr source packetReceivedFromUpper
attr title "packets received from higher layer, sum(packetBytes)"
scalar NetworkModified.host[0].lo[0].lo passedUpPk:count 0
attr interpolationmode none
attr source packetSentToUpper
attr title "packets passed to higher layer, count"
scalar NetworkModified.host[0].lo[0].lo passedUpPk:sum(packetBytes) 0
attr interpolationmode none
attr source packetSentToUpper
attr title "packets passed to higher layer, sum(packetBytes)"
scalar NetworkModified.host[0].wlan[0].mac.dcf.channelAccess.pendingQueue packetPopped:count 190
attr interpolationmode none
attr title "packet popped, count"
scalar NetworkModified.host[0].wlan[0].mac.dcf.channelAccess.pendingQueue packetPopped:sum(packetBytes) 30780
attr interpolationmode none
attr title "packet popped, sum(packetBytes)"
statistic NetworkModified.host[0].wlan[0].mac.dcf.channelAccess.pendingQueue queueingTime:histogram
field count 190
field mean 2.1348973253069
field stddev 2.1458446346133
field min 0
field max 6.422540978578
field sum 405.63049180831
field sqrsum 1736.2581500493
attr interpolationmode none
attr source queueingTime(packetPopped)
attr title "queueing times, histogram"
attr unit s
bin	-inf	0
bin	0	64
bin	0.1	3
bin	0.2	2
bin	0.3	2
bin	0.4	2
bin	0.5	2
bin	0.6	2
bin	0.7	1
bin	0.8	3
bin	0.9	2
bin	1	2
bin	1.1	2
bin	1.2	2
bin	1.3	2
bin	1.4	3
bin	1.5	2
bin	1.6	2
bin	1.7	1
bin	1.8	3
bin	1.9	2
bin	2	2
bin	2.1	2
bin	2.2	2
bin	2.3	2
bin	2.4	2
bin	2.5	2
bin	2.6	1
bin	2.7	1
bin	2.8	2
bin	2.9	2
bin	3	2
bin	3.1	2
bin	3.2	3
bin	3.3	2
bin	3.4	2
bin	3.5	2
bin	3.6	2
bin	3.7	1
bin	3.8	2
bin	3.9	1
bin	4	3
bin	4.1	3
bin	4.2	2
bin	4.3	2
bin	4.4	2
bin	4.5	1
bin	4.6	2
bin	4.7	3
bin	4.8	1
bin	4.9	2
bin	5	3
bin	5.1	1
bin	5.2	2
bin	5.3	2
bin	5.4	2
bin	5.5	2
bin	5.6	1
bin	5.7	2
bin	5.8	2
bin	5.9	2
bin	6	2
bin	6.1	1
bin	6.2	3
bin	6.3	2
bin	6.4	1
bin	6.5	0
bin	6.6	0
bin	6.7	0
bin	6.8	0
bin	6.9	0
bin	7	0
bin	7.1	0
bin	7.2	0
bin	7.3	0
bin	7.4	0
bin	7.5	0
bin	7.6	0
bin	7.7	0
bin	7.8	0
bin	7.9	0
bin	8	0
bin	8.1	0
scalar NetworkModified.host[0].wlan[0].mac.dcf.channelAccess.pendingQueue queueLength:max 101
attr interpolationmode sample-hold
attr source "count(packetPushed) - count(packetPopped) - count(packetRemoved) - count(packetDropped)"
attr title "queue length, max"
scalar NetworkModified.host[0].wlan[0].mac.dcf.channelAccess.pendingQueue queueLength:timeavg 74.078034013273
attr interpolationmode sample-hold
attr source "count(packetPushed) - count(packetPopped) - count(packetRemoved) - count(packetDropped)"
attr title "queue length, timeavg"
scalar NetworkModified.host[0].wlan[0].mac.dcf.channelAccess.pendingQueue packetPushed:count 514
attr interpolationmode none
attr title "packet pushed, count"
scalar NetworkModified.host[0].wlan[0].mac.dcf.channelAccess.pendingQueue packetPushed:sum(packetBytes) 83268
attr interpolationmode none
attr title "packet pushed, sum(packetBytes)"
scalar NetworkModified.host[0].wlan[0].mac.dcf.channelAccess.pendingQueue packetDropQueueOverflow:count 224
attr interpolationmode none
attr source packetDropReasonIsQueueOverflow(packetDropped)
attr title "packet drops: queue overflow, count"
scalar NetworkModified.host[0].wlan[0].mac.dcf.channelAccess.pendingQueue packetDropQueueOverflow:sum(packetBytes) 36288
attr interpolationmode none
attr source packetDropReasonIsQueueOverflow(packetDropped)
attr title "packet drops: queue overflow, sum(packetBytes)"
scalar NetworkModified.host[0].wlan[0].mac.dcf.channelAccess.pendingQueue packetRemoved:count 0
attr interpolationmode none
attr title "packets removed, count"
scalar NetworkModified.host[0].wlan[0].mac.dcf.channelAccess.pendingQueue packetRemoved:sum(packetBytes) 0
attr interpolationmode none
attr title "packets removed, sum(packetBytes)"
statistic NetworkModified.host[0].wlan[0].mac.dcf.channelAccess.inProgressFrames queueingTime:histogram
field count 188
field mean 0.090050323355378
field stddev 0.062431667258579
field min 0.000126067407
field max 0.192005
field sum 16.929460790811
field sqrsum 2.253375763785
attr interpolationmode none
attr source queueingTime(packetDequeued)
attr title "queueing times, histogram"
bin	-inf	0
bin	0	49
bin	0.005	4
bin	0.01	0
bin	0.015	1
bin	0.02	1
bin	0.025	1
bin	0.03	2
bin	0.035	2
bin	0.04	0
bin	0.045	1
bin	0.05	0
bin	0.055	0
bin	0.06	0
bin	0.065	0
bin	0.07	3
bin	0.075	0
bin	0.08	2
bin	0.085	0
bin	0.09	4
bin	0.095	1
bin	0.1	2
bin	0.105	6
bin	0.11	7
bin	0.115	18
bin	0.12	10
bin	0.125	10
bin	0.13	11
bin	0.135	8
bin	0.14	12
bin	0.145	8
bin	0.15	4
bin	0.155	7
bin	0.16	8
bin	0.165	1
bin	0.17	2
bin	0.175	0
bin	0.18	1
bin	0.185	1
bin	0.19	1
bin	0.195	0
bin	0.2	0
bin	0.205	0
bin	0.21	0
bin	0.215	0
bin	0.22	0
bin	0.225	0
bin	0.23	0
bin	0.235	0
bin	0.24	0
scalar NetworkModified.host[0].wlan[0].mac.dcf.channelAccess.inProgressFrames queueLength:max 2
attr interpolationmode sample-hold
attr source "count(packetEnqueued) - count(packetDequeued)"
attr title "queue length, max"
scalar NetworkModified.host[0].wlan[0].mac.dcf.channelAccess.inProgressFrames queueLength:timeavg 1.66832314676
attr interpolationmode sample-hold
attr source "count(packetEnqueued) - count(packetDequeued)"
attr title "queue length, timeavg"
scalar NetworkModified.host[0].wlan[0].mac.dcf.channelAccess.contention channelAccessGranted:count 1020
attr title "channel access granted, count"
scalar NetworkModified.host[0].wlan[0].mac.dcf.channelAccess.contention stateChanged:count 8936
attr interpolationmode none
attr title "contention state changed, count"
scalar NetworkModified.host[0].wlan[0].mac.dcf.channelAccess channelOwnershipChanged:count 2040
attr interpolationmode sample-hold
attr title "channel ownership, count"
scalar NetworkModified.host[0].wlan[0].mac.dcf.originatorMacDataService packetAggregated:count 0
attr title "packets aggregated, count"
scalar NetworkModified.host[0].wlan[0].mac.dcf.originatorMacDataService packetFragmented:count 0
attr title "packets fragmented, count"
scalar NetworkModified.host[0].wlan[0].mac.dcf.recipientMacDataService packetDeaggregated:count 0
attr title "packets deaggregated, count"
scalar NetworkModified.host[0].wlan[0].mac.dcf.recipientMacDataService packetDefragmented:count 0
attr title "packets defragmented, count"
scalar NetworkModified.host[0].wlan[0].mac.dcf.recipientMacDataService packetDropDuplicateDetected:count 0
attr interpolationmode none
attr source packetDropReasonIsDuplicateDetected(packetDropped)
attr title "packet drops: duplicate detected, count"
scalar NetworkModified.host[0].wlan[0].mac.dcf.recipientMacDataService packetDropDuplicateDetected:sum(packetBytes) 0
attr interpolationmode none
attr source packetDropReasonIsDuplicateDetected(packetDropped)
attr title "packet drops: duplicate detected, sum(packetBytes)"
scalar NetworkModified.host[0].wlan[0].mac.dcf.recoveryProcedure retryLimitReached:count 131
attr title "retry limit reached, count"
scalar NetworkModified.host[0].wlan[0].mac.dcf frameSequenceFinished:count 1020
attr title "finished frame sequences, count"
statistic NetworkModified.host[0].wlan[0].mac.dcf frameSequenceDuration:histogram
field count 1020
field mean 0.00013639276934412
field stddev 2.497155340522e-06
field min 0.000126067407
field max 0.000137
field sum 0.139120624731
field sqrsum 1.898140154465e-05
attr source frameSequenceDuration(frameSequenceFinished)
attr title "frame sequence durations, histogram"
bin	-inf	0
bin	0.0001232	0
bin	0.0001234	0
bin	0.0001236	0
bin	0.0001238	0
bin	0.000124	0
bin	0.0001242	0
bin	0.0001244	0
bin	0.0001246	0
bin	0.0001248	0
bin	0.000125	0
bin	0.0001252	0
bin	0.0001254	0
bin	0.0001256	0
bin	0.0001258	0
bin	0.000126	55
bin	0.0001262	2
bin	0.0001264	0
bin	0.0001266	0
bin	0.0001268	0
bin	0.000127	0
bin	0.0001272	0
bin	0.0001274	0
bin	0.0001276	0
bin	0.0001278	0
bin	0.000128	0
bin	0.0001282	0
bin	0.0001284	0
bin	0.0001286	0
bin	0.0001288	0
bin	0.000129	0
bin	0.0001292	0
bin	0.0001294	0
bin	0.0001296	0
bin	0.0001298	0
bin	0.00013	0
bin	0.0001302	0
bin	0.0001304	0
bin	0.0001306	0
bin	0.0001308	0
bin	0.000131	0
bin	0.0001312	0
bin	0.0001314	0
bin	0.0001316	0
bin	0.0001318	0
bin	0.000132	0
bin	0.0001322	0
bin	0.0001324	0
bin	0.0001326	0
bin	0.0001328	0
bin	0.000133	0
bin	0.0001332	0
bin	0.0001334	0
bin	0.0001336	0
bin	0.0001338	0
bin	0.000134	0
bin	0.0001342	0
bin	0.0001344	0
bin	0.0001346	0
bin	0.0001348	0
bin	0.000135	0
bin	0.0001352	0
bin	0.0001354	0
bin	0.0001356	0
bin	0.0001358	0
bin	0.000136	0
bin	0.0001362	0
bin	0.0001364	0
bin	0.0001366	0
bin	0.0001368	963
bin	0.000137	0
bin	0.0001372	0
bin	0.0001374	0
bin	0.0001376	0
bin	0.0001378	0
bin	0.000138	0
bin	0.0001382	0
bin	0.0001384	0
bin	0.0001386	0
bin	0.0001388	0
bin	0.000139	0
bin	0.0001392	0
bin	0.0001394	0
bin	0.0001396	0
bin	0.0001398	0
statistic NetworkModified.host[0].wlan[0].mac.dcf frameSequenceNumPackets:histogram
field count 1020
field mean 2
field stddev 0
field min 2
field max 2
field sum 2040
field sqrsum 4080
attr source frameSequenceNumPackets(frameSequenceFinished)
attr title "frame sequences: number of packets, histogram"
bin	-inf	0
bin	1	0
bin	2	1020
bin	3	0
scalar NetworkModified.host[0].wlan[0].mac.dcf packetReceivedFromPeer:count 57
attr interpolationmode none
attr title "packets received, count"
scalar NetworkModified.host[0].wlan[0].mac.dcf packetReceivedFromPeer:sum(packetBytes) 798
attr interpolationmode none
attr title "packets received, sum(packetBytes)"
scalar NetworkModified.host[0].wlan[0].mac.dcf packetReceivedFromPeerUnicast:count 57
attr interpolationmode none
attr source ieee80211Unicast(packetReceivedFromPeer)
attr title "packets received: unicast, count"
scalar NetworkModified.host[0].wlan[0].mac.dcf packetReceivedFromPeerUnicast:sum(packetBytes) 798
attr interpolationmode none
attr source ieee80211Unicast(packetReceivedFromPeer)
attr title "packets received: unicast, sum(packetBytes)"
scalar NetworkModified.host[0].wlan[0].mac.dcf packetReceivedFromPeerMulticast:count 0
attr interpolationmode none
attr source ieee80211Multicast(packetReceivedFromPeer)
attr title "packets received: multicast, count"
scalar NetworkModified.host[0].wlan[0].mac.dcf packetReceivedFromPeerMulticast:sum(packetBytes) 0
attr interpolationmode none
attr source ieee80211Multicast(packetReceivedFromPeer)
attr title "packets received: multicast, sum(packetBytes)"
scalar NetworkModified.host[0].wlan[0].mac.dcf packetReceivedFromPeerBroadcast:count 0
attr interpolationmode none
attr source ieee80211Broadcast(packetReceivedFromPeer)
attr title "packets received: broadcast, count"
scalar NetworkModified.host[0].wlan[0].mac.dcf packetReceivedFromPeerBroadcast:sum(packetBytes) 0
attr interpolationmode none
attr source ieee80211Broadcast(packetReceivedFromPeer)
attr title "packets received: broadcast, sum(packetBytes)"
scalar NetworkModified.host[0].wlan[0].mac.dcf packetReceivedFromPeerWithRetry:count 0
attr interpolationmode none
attr source ieee80211Retry(packetReceivedFromPeer)
attr title "packets received: with retry, count"
scalar NetworkModified.host[0].wlan[0].mac.dcf packetReceivedFromPeerWithRetry:sum(packetBytes) 0
attr interpolationmode none
attr source ieee80211Retry(packetReceivedFromPeer)
attr title "packets received: with retry, sum(packetBytes)"
scalar NetworkModified.host[0].wlan[0].mac.dcf packetReceivedFromPeerWithoutRetry:count 57
attr interpolationmode none
attr source ieee80211NotRetry(packetReceivedFromPeer)
attr title "packets received: without retry, count"
scalar NetworkModified.host[0].wlan[0].mac.dcf packetReceivedFromPeerWithoutRetry:sum(packetBytes) 798
attr interpolationmode none
attr source ieee80211NotRetry(packetReceivedFromPeer)
attr title "packets received: without retry, sum(packetBytes)"
scalar NetworkModified.host[0].wlan[0].mac.dcf packetSentToPeer:count 1020
attr interpolationmode none
attr title "packets sent, count"
scalar NetworkModified.host[0].wlan[0].mac.dcf packetSentToPeer:sum(packetBytes) 165240
attr interpolationmode none
attr title "packets sent, sum(packetBytes)"
scalar NetworkModified.host[0].wlan[0].mac.dcf packetSentToPeerUnicast:count 1020
attr interpolationmode none
attr source ieee80211Unicast(packetSentToPeer)
attr title "packets sent: unicast, count"
scalar NetworkModified.host[0].wlan[0].mac.dcf packetSentToPeerUnicast:sum(packetBytes) 165240
attr interpolationmode none
attr source ieee80211Unicast(packetSentToPeer)
attr title "packets sent: unicast, sum(packetBytes)"
scalar NetworkModified.host[0].wlan[0].mac.dcf packetSentToPeerMulticast:count 0
attr interpolationmode none
attr source ieee80211Multicast(packetSentToPeer)
attr title "packets sent: multicast, count"
scalar NetworkModified.host[0].wlan[0].mac.dcf packetSentToPeerMulticast:sum(packetBytes) 0
attr interpolationmode none
attr source ieee80211Multicast(packetSentToPeer)
attr title "packets sent: multicast, sum(packetBytes)"
scalar NetworkModified.host[0].wlan[0].mac.dcf packetSentToPeerBroadcast:count 0
attr interpolationmode none
attr source ieee80211Broadcast(packetSentToPeer)
attr title "packets sent: broadcast , count"
scalar NetworkModified.host[0].wlan[0].mac.dcf packetSentToPeerBroadcast:sum(packetBytes) 0
attr interpolationmode none
attr source ieee80211Broadcast(packetSentToPeer)
attr title "packets sent: broadcast , sum(packetBytes)"
scalar NetworkModified.host[0].wlan[0].mac.dcf packetSentToPeerWithRetry:count 831
attr interpolationmode none
attr source ieee80211Retry(packetSentToPeer)
attr title "packets sent: with retry, count"
scalar NetworkModified.host[0].wlan[0].mac.dcf packetSentToPeerWithRetry:sum(packetBytes) 134622
attr interpolationmode none
attr source ieee80211Retry(packetSentToPeer)
attr title "packets sent: with retry, sum(packetBytes)"
scalar NetworkModified.host[0].wlan[0].mac.dcf packetSentToPeerWithoutRetry:count 189
attr interpolationmode none
attr source ieee80211NotRetry(packetSentToPeer)
attr title "packets sent: without retry, count"
scalar NetworkModified.host[0].wlan[0].mac.dcf packetSentToPeerWithoutRetry:sum(packetBytes) 30618
attr interpolationmode none
attr source ieee80211NotRetry(packetSentToPeer)
attr title "packets sent: without retry, sum(packetBytes)"
scalar NetworkModified.host[0].wlan[0].mac.dcf packetDrop:count 488
attr interpolationmode none
attr source packetDropped
attr title "packet drops, count"
scalar NetworkModified.host[0].wlan[0].mac.dcf packetDrop:sum(packetBytes) 73284
attr interpolationmode none
attr source packetDropped
attr title "packet drops, sum(packetBytes)"
scalar NetworkModified.host[0].wlan[0].mac.dcf packetDropNotAddressedToUs:count 133
attr interpolationmode none
attr source packetDropReasonIsNotAddressedToUs(packetDropped)
attr title "packet drops: not addressed to us, count"
scalar NetworkModified.host[0].wlan[0].mac.dcf packetDropNotAddressedToUs:sum(packetBytes) 15774
attr interpolationmode none
attr source packetDropReasonIsNotAddressedToUs(packetDropped)
attr title "packet drops: not addressed to us, sum(packetBytes)"
scalar NetworkModified.host[0].wlan[0].mac.dcf packetDropQueueOverflow:count 224
attr interpolationmode none
attr source packetDropReasonIsQueueOverflow(packetDropped)
attr title "packet drops: queue overflow, count"
scalar NetworkModified.host[0].wlan[0].mac.dcf packetDropQueueOverflow:sum(packetBytes) 36288
attr interpolationmode none
attr source packetDropReasonIsQueueOverflow(packetDropped)
attr title "packet drops: queue overflow, sum(packetBytes)"
scalar NetworkModified.host[0].wlan[0].mac.dcf packetDropRetryLimitReached:count 131
attr interpolationmode none
attr source packetDropReasonIsRetryLimitReached(packetDropped)
attr title "packet drops: retry limit reached, count"
scalar NetworkModified.host[0].wlan[0].mac.dcf packetDropRetryLimitReached:sum(packetBytes) 21222
attr interpolationmode none
attr source packetDropReasonIsRetryLimitReached(packetDropped)
attr title "packet drops: retry limit reached, sum(packetBytes)"
scalar NetworkModified.host[0].wlan[0].mac.dcf linkBroken:count 131
attr interpolationmode none
attr title "link breaks, count"
scalar NetworkModified.host[0].wlan[0].mac packetReceivedFromLower:count 190
attr interpolationmode none
attr title "packets received from lower layer, count"
scalar NetworkModified.host[0].wlan[0].mac packetReceivedFromLower:sum(packetBytes) 16572
attr interpolationmode none
attr title "packets received from lower layer, sum(packetBytes)"
scalar NetworkModified.host[0].wlan[0].mac packetSentToLower:count 1020
attr interpolationmode none
attr title "packets sent to lower layer, count"
scalar NetworkModified.host[0].wlan[0].mac packetSentToLower:sum(packetBytes) 165240
attr interpolationmode none
attr title "packets sent to lower layer, sum(packetBytes)"
scalar NetworkModified.host[0].wlan[0].mac packetReceivedFromUpper:count 514
attr interpolationmode none
attr title "packets received from upper layer, count"
scalar NetworkModified.host[0].wlan[0].mac packetReceivedFromUpper:sum(packetBytes) 68876
attr interpolationmode none
attr title "packets received from upper layer, sum(packetBytes)"
scalar NetworkModified.host[0].wlan[0].mac packetSentToUpper:count 0
attr interpolationmode none
attr title "packets sent to upper layer, count"
scalar NetworkModified.host[0].wlan[0].mac packetSentToUpper:sum(packetBytes) 0
attr interpolationmode none
attr title "packets sent to upper layer, sum(packetBytes)"
scalar NetworkModified.host[0].wlan[0].mac packetDrop:count 488
attr interpolationmode none
attr source packetDropped
attr title "packet drops, count"
scalar NetworkModified.host[0].wlan[0].mac packetDrop:sum(packetBytes) 73284
attr interpolationmode none
attr source packetDropped
attr title "packet drops, sum(packetBytes)"
scalar NetworkModified.host[0].wlan[0].mac packetDropIncorrectlyReceived:count 0
attr interpolationmode none
attr source packetDropReasonIsIncorrectlyReceived(packetDropped)
attr title "packet drops: incorrectly received, count"
scalar NetworkModified.host[0].wlan[0].mac packetDropIncorrectlyReceived:sum(packetBytes) 0
attr interpolationmode none
attr source packetDropReasonIsIncorrectlyReceived(packetDropped)
attr title "packet drops: incorrectly received, sum(packetBytes)"
scalar NetworkModified.host[0].wlan[0].mac packetDropNotAddressedToUs:count 133
attr interpolationmode none
attr source packetDropReasonIsNotAddressedToUs(packetDropped)
attr title "packet drops: not addressed to us, count"
scalar NetworkModified.host[0].wlan[0].mac packetDropNotAddressedToUs:sum(packetBytes) 15774
attr interpolationmode none
attr source packetDropReasonIsNotAddressedToUs(packetDropped)
attr title "packet drops: not addressed to us, sum(packetBytes)"
scalar NetworkModified.host[0].wlan[0].mac packetDropQueueOverflow:count 224
attr interpolationmode none
attr source packetDropReasonIsQueueOverflow(packetDropped)
attr title "packet drops: queue overflow, count"
scalar NetworkModified.host[0].wlan[0].mac packetDropQueueOverflow:sum(packetBytes) 36288
attr interpolationmode none
attr source packetDropReasonIsQueueOverflow(packetDropped)
attr title "packet drops: queue overflow, sum(packetBytes)"
scalar NetworkModified.host[0].wlan[0].mac packetDropRetryLimitReached:count 131
attr interpolationmode none
attr source packetDropReasonIsRetryLimitReached(packetDropped)
attr title "packet drops: retry limit reached, count"
scalar NetworkModified.host[0].wlan[0].mac packetDropRetryLimitReached:sum(packetBytes) 21222
attr interpolationmode none
attr source packetDropReasonIsRetryLimitReached(packetDropped)
attr title "packet drops: retry limit reached, sum(packetBytes)"
scalar NetworkModified.host[0].wlan[0].mac packetDropDuplicateDetected:count 0
attr interpolationmode none
attr source packetDropReasonIsDuplicateDetected(packetDropped)
attr title "packet drops: duplicate detected, count"
scalar NetworkModified.host[0].wlan[0].mac packetDropDuplicateDetected:sum(packetBytes) 0
attr interpolationmode none
attr source packetDropReasonIsDuplicateDetected(packetDropped)
attr title "packet drops: duplicate detected, sum(packetBytes)"
scalar NetworkModified.host[0].wlan[0].mac packetDropOther:count 0
attr interpolationmode none
attr source packetDropReasonIsOther(packetDropped)
attr title "packet drops: other, count"
scalar NetworkModified.host[0].wlan[0].mac packetDropOther:sum(packetBytes) 0
attr interpolationmode none
attr source packetDropReasonIsOther(packetDropped)
attr title "packet drops: other, sum(packetBytes)"
scalar NetworkModified.host[0].wlan[0].mac linkBroken:count 131
attr interpolationmode none
attr title "link breaks, count"
statistic NetworkModified.host[0].wlan[0].radio radioChannel:histogram
field count 1
field mean 0
field stddev -nan
field min 0
field max 0
field sum 0
field sqrsum 0
attr interpolationmode sample-hold
attr source radioChannelChanged
attr title "Radio channel, histogram"
bin	-inf	0
bin	-0.5	0
bin	-0.48	0
bin	-0.46	0
bin	-0.44	0
bin	-0.42	0
bin	-0.4	0
bin	-0.38	0
bin	-0.36	0
bin	-0.34	0
bin	-0.32	0
bin	-0.3	0
bin	-0.28	0
bin	-0.26	0
bin	-0.24	0
bin	-0.22	0
bin	-0.2	0
bin	-0.18	0
bin	-0.16	0
bin	-0.14	0
bin	-0.12	0
bin	-0.1	0
bin	-0.08	0
bin	-0.06	0
bin	-0.04	0
bin	-0.02	0
bin	0	1
bin	0.02	0
bin	0.04	0
bin	0.06	0
bin	0.08	0
bin	0.1	0
bin	0.12	0
bin	0.14	0
bin	0.16	0
bin	0.18	0
bin	0.2	0
bin	0.22	0
bin	0.24	0
bin	0.26	0
bin	0.28	0
bin	0.3	0
bin	0.32	0
bin	0.34	0
bin	0.36	0
bin	0.38	0
bin	0.4	0
bin	0.42	0
bin	0.44	0
bin	0.46	0
bin	0.48	0
bin	0.5	0
scalar NetworkModified.host[0].wlan[0].radio radioMode:count 2043
attr interpolationmode sample-hold
attr source radioModeChanged
attr title "Radio mode, count"
scalar NetworkModified.host[0].wlan[0].radio receptionState:count 2421
attr interpolationmode sample-hold
attr source receptionStateChanged
attr title "Radio reception state, count"
scalar NetworkModified.host[0].wlan[0].radio transmissionState:count 4080
attr interpolationmode sample-hold
attr source transmissionStateChanged
attr title "Radio transmission state, count"
statistic NetworkModified.host[0].wlan[0].radio minSnir:histogram
field count 190
field mean 3751.8406270742
field stddev 8412.6850729809
field min 317.52376643966
field max 64802.117861421
field sum 712849.7191441
field sqrsum 16050646593.206
attr source minimumSnir(packetSentToUpper)
attr title "Min SNIR, histogram"
bin	-inf	0
bin	0	96
bin	1000	34
bin	2000	10
bin	3000	14
bin	4000	8
bin	5000	4
bin	6000	4
bin	7000	0
bin	8000	2
bin	9000	0
bin	10000	4
bin	11000	1
bin	12000	1
bin	13000	0
bin	14000	0
bin	15000	1
bin	16000	1
bin	17000	0
bin	18000	1
bin	19000	0
bin	20000	1
bin	21000	1
bin	22000	0
bin	23000	0
bin	24000	1
bin	25000	0
bin	26000	0
bin	27000	0
bin	28000	0
bin	29000	0
bin	30000	1
bin	31000	0
bin	32000	1
bin	33000	0
bin	34000	0
bin	35000	0
bin	36000	0
bin	37000	2
bin	38000	0
bin	39000	0
bin	40000	0
bin	41000	0
bin	42000	0
bin	43000	0
bin	44000	0
bin	45000	0
bin	46000	0
bin	47000	0
bin	48000	0
bin	49000	0
bin	50000	0
bin	51000	0
bin	52000	0
bin	53000	0
bin	54000	0
bin	55000	1
bin	56000	0
bin	57000	0
bin	58000	0
bin	59000	0
bin	60000	0
bin	61000	0
bin	62000	0
bin	63000	0
bin	64000	1
bin	65000	0
bin	66000	0
bin	67000	0
bin	68000	0
bin	69000	0
bin	70000	0
bin	71000	0
bin	72000	0
bin	73000	0
bin	74000	0
bin	75000	0
bin	76000	0
bin	77000	0
bin	78000	0
bin	79000	0
bin	80000	0
bin	81000	0
statistic NetworkModified.host[0].wlan[0].radio packetErrorRate:histogram
field count 190
field mean 0
field stddev 0
field min 0
field max 0
field sum 0
field sqrsum 0
attr source packetErrorRate(packetSentToUpper)
attr title "Packet error rate, histogram"
bin	-inf	0
bin	-0.5	0
bin	-0.48	0
bin	-0.46	0
bin	-0.44	0
bin	-0.42	0
bin	-0.4	0
bin	-0.38	0
bin	-0.36	0
bin	-0.34	0
bin	-0.32	0
bin	-0.3	0
bin	-0.28	0
bin	-0.26	0
bin	-0.24	0
bin	-0.22	0
bin	-0.2	0
bin	-0.18	0
bin	-0.16	0
bin	-0.14	0
bin	-0.12	0
bin	-0.1	0
bin	-0.08	0
bin	-0.06	0
bin	-0.04	0
bin	-0.02	0
bin	0	190
bin	0.02	0
bin	0.04	0
bin	0.06	0
bin	0.08	0
bin	0.1	0
bin	0.12	0
bin	0.14	0
bin	0.16	0
bin	0.18	0
bin	0.2	0
bin	0.22	0
bin	0.24	0
bin	0.26	0
bin	0.28	0
bin	0.3	0
bin	0.32	0
bin	0.34	0
bin	0.36	0
bin	0.38	0
bin	0.4	0
bin	0.42	0
bin	0.44	0
bin	0.46	0
bin	0.48	0
bin	0.5	0
statistic NetworkModified.host[0].wlan[0].radio bitErrorRate:histogram
field count 0
field mean -nan
field stddev -nan
field min -nan
field max -nan
field sum 0
field sqrsum 0
attr source bitErrorRate(packetSentToUpper)
attr title "Bit error rate, histogram"
bin	-inf	0
bin	0	0
bin	1	0
statistic NetworkModified.host[0].wlan[0].radio symbolErrorRate:histogram
field count 0
field mean -nan
field stddev -nan
field min -nan
field max -nan
field sum 0
field sqrsum 0
attr source symbolErrorRate(packetSentToUpper)
attr title "Symbol error rate, histogram"
bin	-inf	0
bin	0	0
bin	1	0
scalar NetworkModified.host[0].udp packetReceived:count 0
attr interpolationmode none
attr source packetReceived
attr title "packets received, count"
scalar NetworkModified.host[0].udp packetReceived:sum(packetBytes) 0
attr interpolationmode none
attr source packetReceived
attr title "packets received, sum(packetBytes)"
scalar NetworkModified.host[0].udp packetSent:count 514
attr interpolationmode none
attr source packetSent
attr title "packets sent, count"
scalar NetworkModified.host[0].udp packetSent:sum(packetBytes) 55512
attr interpolationmode none
attr source packetSent
attr title "packets sent, sum(packetBytes)"
scalar NetworkModified.host[0].udp passedUpPk:count 0
attr interpolationmode none
attr source packetSentToUpper
attr title "packets passed up, count"
scalar NetworkModified.host[0].udp droppedPkWrongPort:count 0
attr interpolationmode none
attr source packetDropReasonIsNoPortFound(packetDropped)
attr title "packets dropped (wrong port), count"
scalar NetworkModified.host[0].udp droppedPkBadChecksum:count 0
attr interpolationmode none
attr source packetDropReasonIsIncorrectlyReceived(packetDropped)
attr title "packets dropped (checksum error), count"
scalar NetworkModified.host[0].app[0] "packets sent" 514
scalar NetworkModified.host[0].app[0] "packets received" 0
scalar NetworkModified.host[0].app[0] packetReceived:count 0
attr interpolationmode none
attr source packetReceived
attr title "packets received, count"
scalar NetworkModified.host[0].app[0] packetReceived:sum(packetBytes) 0
attr interpolationmode none
attr source packetReceived
attr title "packets received, sum(packetBytes)"
statistic NetworkModified.host[0].app[0] rcvdPkLifetime:stats
field count 0
field mean -nan
field stddev -nan
field min -nan
field max -nan
field sum 0
field sqrsum 0
attr interpolationmode none
attr source dataAge(packetReceived)
attr title "received packet lifetime, stats"
attr unit s
scalar NetworkModified.host[0].app[0] packetSent:count 514
attr interpolationmode none
attr source packetSent
attr title "packets sent, count"
scalar NetworkModified.host[0].app[0] packetSent:sum(packetBytes) 51400
attr interpolationmode none
attr source packetSent
attr title "packets sent, sum(packetBytes)"
scalar NetworkModified.host[1].lo[0].lo rcvdPkFromHl:count 0
attr interpolationmode none
attr source packetReceivedFromUpper
attr title "packets received from higher layer, count"
scalar NetworkModified.host[1].lo[0].lo rcvdPkFromHl:sum(packetBytes) 0
attr interpolationmode none
attr source packetReceivedFromUpper
attr title "packets received from higher layer, sum(packetBytes)"
scalar NetworkModified.host[1].lo[0].lo passedUpPk:count 0
attr interpolationmode none
attr source packetSentToUpper
attr title "packets passed to higher layer, count"
scalar NetworkModified.host[1].lo[0].lo passedUpPk:sum(packetBytes) 0
attr interpolationmode none
attr source packetSentToUpper
attr title "packets passed to higher layer, sum(packetBytes)"
scalar NetworkModified.host[1].wlan[0].mac.dcf.channelAccess.pendingQueue packetPopped:count 241
attr interpolationmode none
attr title "packet popped, count"
scalar NetworkModified.host[1].wlan[0].mac.dcf.channelAccess.pendingQueue packetPopped:sum(packetBytes) 39042
attr interpolationmode none
attr title "packet popped, sum(packetBytes)"
statistic NetworkModified.host[1].wlan[0].mac.dcf.channelAccess.pendingQueue queueingTime:histogram
field count 241
field mean 1.1766665803332
field stddev 1.686521813116
field min 0
field max 5.408283539019
field sum 283.57664586029
field sqrsum 1016.3205604147
attr interpolationmode none
attr source queueingTime(packetPopped)
attr title "queueing times, histogram"
attr unit s
bin	-inf	0
bin	-0.5	0
bin	-0.42	0
bin	-0.34	0
bin	-0.26	0
bin	-0.18	0
bin	-0.1	0
bin	-0.02	136
bin	0.06	1
bin	0.14	2
bin	0.22	1
bin	0.3	2
bin	0.38	2
bin	0.46	2
bin	0.54	2
bin	0.62	1
bin	0.7	2
bin	0.78	1
bin	0.86	2
bin	0.94	1
bin	1.02	2
bin	1.1	2
bin	1.18	1
bin	1.26	2
bin	1.34	2
bin	1.42	1
bin	1.5	1
bin	1.58	2
bin	1.66	1
bin	1.74	3
bin	1.82	2
bin	1.9	1
bin	1.98	1
bin	2.06	2
bin	2.14	2
bin	2.22	1
bin	2.3	2
bin	2.38	1
bin	2.46	2
bin	2.54	2
bin	2.62	1
bin	2.7	1
bin	2.78	2
bin	2.86	2
bin	2.94	1
bin	3.02	2
bin	3.1	2
bin	3.18	1
bin	3.26	1
bin	3.34	3
bin	3.42	1
bin	3.5	2
bin	3.58	1
bin	3.66	2
bin	3.74	2
bin	3.82	1
bin	3.9	1
bin	3.98	2
bin	4.06	1
bin	4.14	2
bin	4.22	1
bin	4.3	1
bin	4.38	2
bin	4.46	1
bin	4.54	1
bin	4.62	2
bin	4.7	1
bin	4.78	2
bin	4.86	1
bin	4.94	3
bin	5.02	1
bin	5.1	1
bin	5.18	2
bin	5.26	1
bin	5.34	2
bin	5.42	0
scalar NetworkModified.host[1].wlan[0].mac.dcf.channelAccess.pendingQueue queueLength:max 101
attr interpolationmode sample-hold
attr source "count(packetPushed) - count(packetPopped) - count(packetRemoved) - count(packetDropped)"
attr title "queue length, max"
scalar NetworkModified.host[1].wlan[0].mac.dcf.channelAccess.pendingQueue queueLength:timeavg 60.112133218676
attr interpolationmode sample-hold
attr source "count(packetPushed) - count(packetPopped) - count(packetRemoved) - count(packetDropped)"
attr title "queue length, timeavg"
scalar NetworkModified.host[1].wlan[0].mac.dcf.channelAccess.pendingQueue packetPushed:count 514
attr interpolationmode none
attr title "packet pushed, count"
scalar NetworkModified.host[1].wlan[0].mac.dcf.channelAccess.pendingQueue packetPushed:sum(packetBytes) 83268
attr interpolationmode none
attr title "packet pushed, sum(packetBytes)"
scalar NetworkModified.host[1].wlan[0].mac.dcf.channelAccess.pendingQueue packetDropQueueOverflow:count 173
attr interpolationmode none
attr source packetDropReasonIsQueueOverflow(packetDropped)
attr title "packet drops: queue overflow, count"
scalar NetworkModified.host[1].wlan[0].mac.dcf.channelAccess.pendingQueue packetDropQueueOverflow:sum(packetBytes) 28026
attr interpolationmode none
attr source packetDropReasonIsQueueOverflow(packetDropped)
attr title "packet drops: queue overflow, sum(packetBytes)"
scalar NetworkModified.host[1].wlan[0].mac.dcf.channelAccess.pendingQueue packetRemoved:count 0
attr interpolationmode none
attr title "packets removed, count"
scalar NetworkModified.host[1].wlan[0].mac.dcf.channelAccess.pendingQueue packetRemoved:sum(packetBytes) 0
attr interpolationmode none
attr title "packets removed, sum(packetBytes)"
statistic NetworkModified.host[1].wlan[0].mac.dcf.channelAccess.inProgressFrames queueingTime:histogram
field count 239
field mean 0.059522470909992
field stddev 0.066000760152128
field min 0.000126045708
field max 0.173005
field sum 14.225870547488
field sqrsum 1.8835108469089
attr interpolationmode none
attr source queueingTime(packetDequeued)
attr title "queueing times, histogram"
bin	-inf	0
bin	0	124
bin	0.005	2
bin	0.01	1
bin	0.015	0
bin	0.02	1
bin	0.025	0
bin	0.03	1
bin	0.035	1
bin	0.04	2
bin	0.045	1
bin	0.05	1
bin	0.055	0
bin	0.06	0
bin	0.065	0
bin	0.07	0
bin	0.075	0
bin	0.08	0
bin	0.085	0
bin	0.09	3
bin	0.095	2
bin	0.1	2
bin	0.105	6
bin	0.11	7
bin	0.115	9
bin	0.12	12
bin	0.125	10
bin	0.13	7
bin	0.135	11
bin	0.14	8
bin	0.145	7
bin	0.15	6
bin	0.155	8
bin	0.16	3
bin	0.165	2
bin	0.17	2
bin	0.175	0
bin	0.18	0
bin	0.185	0
bin	0.19	0
bin	0.195	0
bin	0.2	0
bin	0.205	0
bin	0.21	0
bin	0.215	0
bin	0.22	0
scalar NetworkModified.host[1].wlan[0].mac.dcf.channelAccess.inProgressFrames queueLength:max 2
attr interpolationmode sample-hold
attr source "count(packetEnqueued) - count(packetDequeued)"
attr title "queue length, max"
scalar NetworkModified.host[1].wlan[0].mac.dcf.channelAccess.inProgressFrames queueLength:timeavg 1.4020780276435
attr interpolationmode sample-hold
attr source "count(packetEnqueued) - count(packetDequeued)"
attr title "queue length, timeavg"
scalar NetworkModified.host[1].wlan[0].mac.dcf.channelAccess.contention channelAccessGranted:count 938
attr title "channel access granted, count"
scalar NetworkModified.host[1].wlan[0].mac.dcf.channelAccess.contention stateChanged:count 10536
attr interpolationmode none
attr title "contention state changed, count"
scalar NetworkModified.host[1].wlan[0].mac.dcf.channelAccess channelOwnershipChanged:count 1875
attr interpolationmode sample-hold
attr title "channel ownership, count"
scalar NetworkModified.host[1].wlan[0].mac.dcf.originatorMacDataService packetAggregated:count 0
attr title "packets aggregated, count"
scalar NetworkModified.host[1].wlan[0].mac.dcf.originatorMacDataService packetFragmented:count 0
attr title "packets fragmented, count"
scalar NetworkModified.host[1].wlan[0].mac.dcf.recipientMacDataService packetDeaggregated:count 0
attr title "packets deaggregated, count"
scalar NetworkModified.host[1].wlan[0].mac.dcf.recipientMacDataService packetDefragmented:count 0
attr title "packets defragmented, count"
scalar NetworkModified.host[1].wlan[0].mac.dcf.recipientMacDataService packetDropDuplicateDetected:count 0
attr interpolationmode none
attr source packetDropReasonIsDuplicateDetected(packetDropped)
attr title "packet drops: duplicate detected, count"
scalar NetworkModified.host[1].wlan[0].mac.dcf.recipientMacDataService packetDropDuplicateDetected:sum(packetBytes) 0
attr interpolationmode none
attr source packetDropReasonIsDuplicateDetected(packetDropped)
attr title "packet drops: duplicate detected, sum(packetBytes)"
scalar NetworkModified.host[1].wlan[0].mac.dcf.recoveryProcedure retryLimitReached:count 109
attr title "retry limit reached, count"
scalar NetworkModified.host[1].wlan[0].mac.dcf frameSequenceFinished:count 937
attr title "finished frame sequences, count"
statistic NetworkModified.host[1].wlan[0].mac.dcf frameSequenceDuration:histogram
field count 937
field mean 0.00013548663405443
field stddev 3.7726418470258e-06
field min 0.000126045708
field max 0.000137
field sum 0.126950976109
field sqrsum 1.7213482368542e-05
attr source frameSequenceDuration(frameSequenceFinished)
attr title "frame sequence durations, histogram"
bin	-inf	0
bin	0.0001232	0
bin	0.0001234	0
bin	0.0001236	0
bin	0.0001238	0
bin	0.000124	0
bin	0.0001242	0
bin	0.0001244	0
bin	0.0001246	0
bin	0.0001248	0
bin	0.000125	0
bin	0.0001252	0
bin	0.0001254	0
bin	0.0001256	0
bin	0.0001258	0
bin	0.000126	128
bin	0.0001262	2
bin	0.0001264	0
bin	0.0001266	0
bin	0.0001268	0
bin	0.000127	0
bin	0.0001272	0
bin	0.0001274	0
bin	0.0001276	0
bin	0.0001278	0
bin	0.000128	0
bin	0.0001282	0
bin	0.0001284	0
bin	0.0001286	0
bin	0.0001288	0
bin	0.000129	0
bin	0.0001292	0
bin	0.0001294	0
bin	0.0001296	0
bin	0.0001298	0
bin	0.00013	0
bin	0.0001302	0
bin	0.0001304	0
bin	0.0001306	0
bin	0.0001308	0
bin	0.000131	0
bin	0.0001312	0
bin	0.0001314	0
bin	0.0001316	0
bin	0.0001318	0
bin	0.000132	0
bin	0.0001322	0
bin	0.0001324	0
bin	0.0001326	0
bin	0.0001328	0
bin	0.000133	0
bin	0.0001332	0
bin	0.0001334	0
bin	0.0001336	0
bin	0.0001338	0
bin	0.000134	0
bin	0.0001342	0
bin	0.0001344	0
bin	0.0001346	0
bin	0.0001348	0
bin	0.000135	0
bin	0.0001352	0
bin	0.0001354	0
bin	0.0001356	0
bin	0.0001358	0
bin	0.000136	0
bin	0.0001362	0
bin	0.0001364	0
bin	0.0001366	0
bin	0.0001368	807
bin	0.000137	0
bin	0.0001372	0
bin	0.0001374	0
bin	0.0001376	0
bin	0.0001378	0
bin	0.000138	0
bin	0.0001382	0
bin	0.0001384	0
bin	0.0001386	0
bin	0.0001388	0
bin	0.000139	0
bin	0.0001392	0
bin	0.0001394	0
bin	0.0001396	0
bin	0.0001398	0
statistic NetworkModified.host[1].wlan[0].mac.dcf frameSequenceNumPackets:histogram
field count 937
field mean 2
field stddev 0
field min 2
field max 2
field sum 1874
field sqrsum 3748
attr source frameSequenceNumPackets(frameSequenceFinished)
attr title "frame sequences: number of packets, histogram"
bin	-inf	0
bin	1	0
bin	2	937
bin	3	0
scalar NetworkModified.host[1].wlan[0].mac.dcf packetReceivedFromPeer:count 130
attr interpolationmode none
attr title "packets received, count"
scalar NetworkModified.host[1].wlan[0].mac.dcf packetReceivedFromPeer:sum(packetBytes) 1820
attr interpolationmode none
attr title "packets received, sum(packetBytes)"
scalar NetworkModified.host[1].wlan[0].mac.dcf packetReceivedFromPeerUnicast:count 130
attr interpolationmode none
attr source ieee80211Unicast(packetReceivedFromPeer)
attr title "packets received: unicast, count"
scalar NetworkModified.host[1].wlan[0].mac.dcf packetReceivedFromPeerUnicast:sum(packetBytes) 1820
attr interpolationmode none
attr source ieee80211Unicast(packetReceivedFromPeer)
attr title "packets received: unicast, sum(packetBytes)"
scalar NetworkModified.host[1].wlan[0].mac.dcf packetReceivedFromPeerMulticast:count 0
attr interpolationmode none
attr source ieee80211Multicast(packetReceivedFromPeer)
attr title "packets received: multicast, count"
scalar NetworkModified.host[1].wlan[0].mac.dcf packetReceivedFromPeerMulticast:sum(packetBytes) 0
attr interpolationmode none
attr source ieee80211Multicast(packetReceivedFromPeer)
attr title "packets received: multicast, sum(packetBytes)"
scalar NetworkModified.host[1].wlan[0].mac.dcf packetReceivedFromPeerBroadcast:count 0
attr interpolationmode none
attr source ieee80211Broadcast(packetReceivedFromPeer)
attr title "packets received: broadcast, count"
scalar NetworkModified.host[1].wlan[0].mac.dcf packetReceivedFromPeerBroadcast:sum(packetBytes) 0
attr interpolationmode none
attr source ieee80211Broadcast(packetReceivedFromPeer)
attr title "packets received: broadcast, sum(packetBytes)"
scalar NetworkModified.host[1].wlan[0].mac.dcf packetReceivedFromPeerWithRetry:count 0
attr interpolationmode none
attr source ieee80211Retry(packetReceivedFromPeer)
attr title "packets received: with retry, count"
scalar NetworkModified.host[1].wlan[0].mac.dcf packetReceivedFromPeerWithRetry:sum(packetBytes) 0
attr interpolationmode none
attr source ieee80211Retry(packetReceivedFromPeer)
attr title "packets received: with retry, sum(packetBytes)"
scalar NetworkModified.host[1].wlan[0].mac.dcf packetReceivedFromPeerWithoutRetry:count 130
attr interpolationmode none
attr source ieee80211NotRetry(packetReceivedFromPeer)
attr title "packets received: without retry, count"
scalar NetworkModified.host[1].wlan[0].mac.dcf packetReceivedFromPeerWithoutRetry:sum(packetBytes) 1820
attr interpolationmode none
attr source ieee80211NotRetry(packetReceivedFromPeer)
attr title "packets received: without retry, sum(packetBytes)"
scalar NetworkModified.host[1].wlan[0].mac.dcf packetSentToPeer:count 937
attr interpolationmode none
attr title "packets sent, count"
scalar NetworkModified.host[1].wlan[0].mac.dcf packetSentToPeer:sum(packetBytes) 151794
attr interpolationmode none
attr title "packets sent, sum(packetBytes)"
scalar NetworkModified.host[1].wlan[0].mac.dcf packetSentToPeerUnicast:count 937
attr interpolationmode none
attr source ieee80211Unicast(packetSentToPeer)
attr title "packets sent: unicast, count"
scalar NetworkModified.host[1].wlan[0].mac.dcf packetSentToPeerUnicast:sum(packetBytes) 151794
attr interpolationmode none
attr source ieee80211Unicast(packetSentToPeer)
attr title "packets sent: unicast, sum(packetBytes)"
scalar NetworkModified.host[1].wlan[0].mac.dcf packetSentToPeerMulticast:count 0
attr interpolationmode none
attr source ieee80211Multicast(packetSentToPeer)
attr title "packets sent: multicast, count"
scalar NetworkModified.host[1].wlan[0].mac.dcf packetSentToPeerMulticast:sum(packetBytes) 0
attr interpolationmode none
attr source ieee80211Multicast(packetSentToPeer)
attr title "packets sent: multicast, sum(packetBytes)"
scalar NetworkModified.host[1].wlan[0].mac.dcf packetSentToPeerBroadcast:count 0
attr interpolationmode none
attr source ieee80211Broadcast(packetSentToPeer)
attr title "packets sent: broadcast , count"
scalar NetworkModified.host[1].wlan[0].mac.dcf packetSentToPeerBroadcast:sum(packetBytes) 0
attr interpolationmode none
attr source ieee80211Broadcast(packetSentToPeer)
attr title "packets sent: broadcast , sum(packetBytes)"
scalar NetworkModified.host[1].wlan[0].mac.dcf packetSentToPeerWithRetry:count 697
attr interpolationmode none
attr source ieee80211Retry(packetSentToPeer)
attr title "packets sent: with retry, count"
scalar NetworkModified.host[1].wlan[0].mac.dcf packetSentToPeerWithRetry:sum(packetBytes) 112914
attr interpolationmode none
attr source ieee80211Retry(packetSentToPeer)
attr title "packets sent: with retry, sum(packetBytes)"
scalar NetworkModified.host[1].wlan[0].mac.dcf packetSentToPeerWithoutRetry:count 240
attr interpolationmode none
attr source ieee80211NotRetry(packetSentToPeer)
attr title "packets sent: without retry, count"
scalar NetworkModified.host[1].wlan[0].mac.dcf packetSentToPeerWithoutRetry:sum(packetBytes) 38880
attr interpolationmode none
attr source ieee80211NotRetry(packetSentToPeer)
attr title "packets sent: without retry, sum(packetBytes)"
scalar NetworkModified.host[1].wlan[0].mac.dcf packetDrop:count 930
attr interpolationmode none
attr source packetDropped
attr title "packet drops, count"
scalar NetworkModified.host[1].wlan[0].mac.dcf packetDrop:sum(packetBytes) 109072
attr interpolationmode none
attr source packetDropped
attr title "packet drops, sum(packetBytes)"
scalar NetworkModified.host[1].wlan[0].mac.dcf packetDropNotAddressedToUs:count 648
attr interpolationmode none
attr source packetDropReasonIsNotAddressedToUs(packetDropped)
attr title "packet drops: not addressed to us, count"
scalar NetworkModified.host[1].wlan[0].mac.dcf packetDropNotAddressedToUs:sum(packetBytes) 63388
attr interpolationmode none
attr source packetDropReasonIsNotAddressedToUs(packetDropped)
attr title "packet drops: not addressed to us, sum(packetBytes)"
scalar NetworkModified.host[1].wlan[0].mac.dcf packetDropQueueOverflow:count 173
attr interpolationmode none
attr source packetDropReasonIsQueueOverflow(packetDropped)
attr title "packet drops: queue overflow, count"
scalar NetworkModified.host[1].wlan[0].mac.dcf packetDropQueueOverflow:sum(packetBytes) 28026
attr interpolationmode none
attr source packetDropReasonIsQueueOverflow(packetDropped)
attr title "packet drops: queue overflow, sum(packetBytes)"
scalar NetworkModified.host[1].wlan[0].mac.dcf packetDropRetryLimitReached:count 109
attr interpolationmode none
attr source packetDropReasonIsRetryLimitReached(packetDropped)
attr title "packet drops: retry limit reached, count"
scalar NetworkModified.host[1].wlan[0].mac.dcf packetDropRetryLimitReached:sum(packetBytes) 17658
attr interpolationmode none
attr source packetDropReasonIsRetryLimitReached(packetDropped)
attr title "packet drops: retry limit reached, sum(packetBytes)"
scalar NetworkModified.host[1].wlan[0].mac.dcf linkBroken:count 109
attr interpolationmode none
attr title "link breaks, count"
scalar NetworkModified.host[1].wlan[0].mac packetReceivedFromLower:count 778
attr interpolationmode none
attr title "packets received from lower layer, count"
scalar NetworkModified.host[1].wlan[0].mac packetReceivedFromLower:sum(packetBytes) 65208
attr interpolationmode none
attr title "packets received from lower layer, sum(packetBytes)"
scalar NetworkModified.host[1].wlan[0].mac packetSentToLower:count 938
attr interpolationmode none
attr title "packets sent to lower layer, count"
scalar NetworkModified.host[1].wlan[0].mac packetSentToLower:sum(packetBytes) 151956
attr interpolationmode none
attr title "packets sent to lower layer, sum(packetBytes)"
scalar NetworkModified.host[1].wlan[0].mac packetReceivedFromUpper:count 514
attr interpolationmode none
attr title "packets received from upper layer, count"
scalar NetworkModified.host[1].wlan[0].mac packetReceivedFromUpper:sum(packetBytes) 68876
attr interpolationmode none
attr title "packets received from upper layer, sum(packetBytes)"
scalar NetworkModified.host[1].wlan[0].mac packetSentToUpper:count 0
attr interpolationmode none
attr title "packets sent to upper layer, count"
scalar NetworkModified.host[1].wlan[0].mac packetSentToUpper:sum(packetBytes) 0
attr interpolationmode none
attr title "packets sent to upper layer, sum(packetBytes)"
scalar NetworkModified.host[1].wlan[0].mac packetDrop:count 930
attr interpolationmode none
attr source packetDropped
attr title "packet drops, count"
scalar NetworkModified.host[1].wlan[0].mac packetDrop:sum(packetBytes) 109072
attr interpolationmode none
attr source packetDropped
attr title "packet drops, sum(packetBytes)"
scalar NetworkModified.host[1].wlan[0].mac packetDropIncorrectlyReceived:count 0
attr interpolationmode none
attr source packetDropReasonIsIncorrectlyReceived(packetDropped)
attr title "packet drops: incorrectly received, count"
scalar NetworkModified.host[1].wlan[0].mac packetDropIncorrectlyReceived:sum(packetBytes) 0
attr interpolationmode none
attr source packetDropReasonIsIncorrectlyReceived(packetDropped)
attr title "packet drops: incorrectly received, sum(packetBytes)"
scalar NetworkModified.host[1].wlan[0].mac packetDropNotAddressedToUs:count 648
attr interpolationmode none
attr source packetDropReasonIsNotAddressedToUs(packetDropped)
attr title "packet drops: not addressed to us, count"
scalar NetworkModified.host[1].wlan[0].mac packetDropNotAddressedToUs:sum(packetBytes) 63388
attr interpolationmode none
attr source packetDropReasonIsNotAddressedToUs(packetDropped)
attr title "packet drops: not addressed to us, sum(packetBytes)"
scalar NetworkModified.host[1].wlan[0].mac packetDropQueueOverflow:count 173
attr interpolationmode none
attr source packetDropReasonIsQueueOverflow(packetDropped)
attr title "packet drops: queue overflow, count"
scalar NetworkModified.host[1].wlan[0].mac packetDropQueueOverflow:sum(packetBytes) 28026
attr interpolationmode none
attr source packetDropReasonIsQueueOverflow(packetDropped)
attr title "packet drops: queue overflow, sum(packetBytes)"
scalar NetworkModified.host[1].wlan[0].mac packetDropRetryLimitReached:count 109
attr interpolationmode none
attr source packetDropReasonIsRetryLimitReached(packetDropped)
attr title "packet drops: retry limit reached, count"
scalar NetworkModified.host[1].wlan[0].mac packetDropRetryLimitReached:sum(packetBytes) 17658
attr interpolationmode none
attr source packetDropReasonIsRetryLimitReached(packetDropped)
attr title "packet drops: retry limit reached, sum(packetBytes)"
scalar NetworkModified.host[1].wlan[0].mac packetDropDuplicateDetected:count 0
attr interpolationmode none
attr source packetDropReasonIsDuplicateDetected(packetDropped)
attr title "packet drops: duplicate detected, count"
scalar NetworkModified.host[1].wlan[0].mac packetDropDuplicateDetected:sum(packetBytes) 0
attr interpolationmode none
attr source packetDropReasonIsDuplicateDetected(packetDropped)
attr title "packet drops: duplicate detected, sum(packetBytes)"
scalar NetworkModified.host[1].wlan[0].mac packetDropOther:count 0
attr interpolationmode none
attr source packetDropReasonIsOther(packetDropped)
attr title "packet drops: other, count"
scalar NetworkModified.host[1].wlan[0].mac packetDropOther:sum(packetBytes) 0
attr interpolationmode none
attr source packetDropReasonIsOther(packetDropped)
attr title "packet drops: other, sum(packetBytes)"
scalar NetworkModified.host[1].wlan[0].mac linkBroken:count 109
attr interpolationmode none
attr title "link breaks, count"
statistic NetworkModified.host[1].wlan[0].radio radioChannel:histogram
field count 1
field mean 0
field stddev -nan
field min 0
field max 0
field sum 0
field sqrsum 0
attr interpolationmode sample-hold
attr source radioChannelChanged
attr title "Radio channel, histogram"
bin	-inf	0
bin	-0.5	0
bin	-0.48	0
bin	-0.46	0
bin	-0.44	0
bin	-0.42	0
bin	-0.4	0
bin	-0.38	0
bin	-0.36	0
bin	-0.34	0
bin	-0.32	0
bin	-0.3	0
bin	-0.28	0
bin	-0.26	0
bin	-0.24	0
bin	-0.22	0
bin	-0.2	0
bin	-0.18	0
bin	-0.16	0
bin	-0.14	0
bin	-0.12	0
bin	-0.1	0
bin	-0.08	0
bin	-0.06	0
bin	-0.04	0
bin	-0.02	0
bin	0	1
bin	0.02	0
bin	0.04	0
bin	0.06	0
bin	0.08	0
bin	0.1	0
bin	0.12	0
bin	0.14	0
bin	0.16	0
bin	0.18	0
bin	0.2	0
bin	0.22	0
bin	0.24	0
bin	0.26	0
bin	0.28	0
bin	0.3	0
bin	0.32	0
bin	0.34	0
bin	0.36	0
bin	0.38	0
bin	0.4	0
bin	0.42	0
bin	0.44	0
bin	0.46	0
bin	0.48	0
bin	0.5	0
scalar NetworkModified.host[1].wlan[0].radio radioMode:count 1878
attr interpolationmode sample-hold
attr source radioModeChanged
attr title "Radio mode, count"
scalar NetworkModified.host[1].wlan[0].radio receptionState:count 3432
attr interpolationmode sample-hold
attr source receptionStateChanged
attr title "Radio reception state, count"
scalar NetworkModified.host[1].wlan[0].radio transmissionState:count 3750
attr interpolationmode sample-hold
attr source transmissionStateChanged
attr title "Radio transmission state, count"
statistic NetworkModified.host[1].wlan[0].radio minSnir:histogram
field count 778
field mean 21246.841307101
field stddev 95899.283495489
field min 316.74986592192
field max 1696082.1878944
field sum 16530042.536924
field sqrsum 7497025781316.4
attr source minimumSnir(packetSentToUpper)
attr title "Min SNIR, histogram"
bin	-inf	0
bin	0	682
bin	30000	39
bin	60000	20
bin	90000	13
bin	120000	3
bin	150000	3
bin	180000	3
bin	210000	2
bin	240000	2
bin	270000	3
bin	300000	1
bin	330000	1
bin	360000	1
bin	390000	0
bin	420000	0
bin	450000	0
bin	480000	0
bin	510000	1
bin	540000	0
bin	570000	1
bin	600000	0
bin	630000	0
bin	660000	0
bin	690000	0
bin	720000	0
bin	750000	0
bin	780000	1
bin	810000	0
bin	840000	0
bin	870000	0
bin	900000	0
bin	930000	0
bin	960000	0
bin	990000	0
bin	1020000	0
bin	1050000	0
bin	1080000	0
bin	1110000	0
bin	1140000	0
bin	1170000	0
bin	1200000	0
bin	1230000	0
bin	1260000	0
bin	1290000	0
bin	1320000	0
bin	1350000	0
bin	1380000	1
bin	1410000	0
bin	1440000	0
bin	1470000	0
bin	1500000	0
bin	1530000	0
bin	1560000	0
bin	1590000	0
bin	1620000	0
bin	1650000	0
bin	1680000	1
bin	1710000	0
statistic NetworkModified.host[1].wlan[0].radio packetErrorRate:histogram
field count 778
field mean 0
field stddev 0
field min 0
field max 0
field sum 0
field sqrsum 0
attr source packetErrorRate(packetSentToUpper)
attr title "Packet error rate, histogram"
bin	-inf	0
bin	-0.5	0
bin	-0.48	0
bin	-0.46	0
bin	-0.44	0
bin	-0.42	0
bin	-0.4	0
bin	-0.38	0
bin	-0.36	0
bin	-0.34	0
bin	-0.32	0
bin	-0.3	0
bin	-0.28	0
bin	-0.26	0
bin	-0.24	0
bin	-0.22	0
bin	-0.2	0
bin	-0.18	0
bin	-0.16	0
bin	-0.14	0
bin	-0.12	0
bin	-0.1	0
bin	-0.08	0
bin	-0.06	0
bin	-0.04	0
bin	-0.02	0
bin	0	778
bin	0.02	0
bin	0.04	0
bin	0.06	0
bin	0.08	0
bin	0.1	0
bin	0.12	0
bin	0.14	0
bin	0.16	0
bin	0.18	0
bin	0.2	0
bin	0.22	0
bin	0.24	0
bin	0.26	0
bin	0.28	0
bin	0.3	0
bin	0.32	0
bin	0.34	0
bin	0.36	0
bin	0.38	0
bin	0.4	0
bin	0.42	0
bin	0.44	0
bin	0.46	0
bin	0.48	0
bin	0.5	0
statistic NetworkModified.host[1].wlan[0].radio bitErrorRate:histogram
field count 0
field mean -nan
field stddev -nan
field min -nan
field max -nan
field sum 0
field sqrsum 0
attr source bitErrorRate(packetSentToUpper)
attr title "Bit error rate, histogram"
bin	-inf	0
bin	0	0
bin	1	0
statistic NetworkModified.host[1].wlan[0].radio symbolErrorRate:histogram
field count 0
field mean -nan
field stddev -nan
field min -nan
field max -nan
field sum 0
field sqrsum 0
attr source symbolErrorRate(packetSentToUpper)
attr title "Symbol error rate, histogram"
bin	-inf	0
bin	0	0
bin	1	0
scalar NetworkModified.host[1].udp packetReceived:count 0
attr interpolationmode none
attr source packetReceived
attr title "packets received, count"
scalar NetworkModified.host[1].udp packetReceived:sum(packetBytes) 0
attr interpolationmode none
attr source packetReceived
attr title "packets received, sum(packetBytes)"
scalar NetworkModified.host[1].udp packetSent:count 514
attr interpolationmode none
attr source packetSent
attr title "packets sent, count"
scalar NetworkModified.host[1].udp packetSent:sum(packetBytes) 55512
attr interpolationmode none
attr source packetSent
attr title "packets sent, sum(packetBytes)"
scalar NetworkModified.host[1].udp passedUpPk:count 0
attr interpolationmode none
attr source packetSentToUpper
attr title "packets passed up, count"
scalar NetworkModified.host[1].udp droppedPkWrongPort:count 0
attr interpolationmode none
attr source packetDropReasonIsNoPortFound(packetDropped)
attr title "packets dropped (wrong port), count"
scalar NetworkModified.host[1].udp droppedPkBadChecksum:count 0
attr interpolationmode none
attr source packetDropReasonIsIncorrectlyReceived(packetDropped)
attr title "packets dropped (checksum error), count"
scalar NetworkModified.host[1].app[0] "packets sent" 514
scalar NetworkModified.host[1].app[0] "packets received" 0
scalar NetworkModified.host[1].app[0] packetReceived:count 0
attr interpolationmode none
attr source packetReceived
attr title "packets received, count"
scalar NetworkModified.host[1].app[0] packetReceived:sum(packetBytes) 0
attr interpolationmode none
attr source packetReceived
attr title "packets received, sum(packetBytes)"
statistic NetworkModified.host[1].app[0] rcvdPkLifetime:stats
field count 0
field mean -nan
field stddev -nan
field min -nan
field max -nan
field sum 0
field sqrsum 0
attr interpolationmode none
attr source dataAge(packetReceived)
attr title "received packet lifetime, stats"
attr unit s
scalar NetworkModified.host[1].app[0] packetSent:count 514
attr interpolationmode none
attr source packetSent
attr title "packets sent, count"
scalar NetworkModified.host[1].app[0] packetSent:sum(packetBytes) 51400
attr interpolationmode none
attr source packetSent
attr title "packets sent, sum(packetBytes)"
scalar NetworkModified.host[2].lo[0].lo rcvdPkFromHl:count 0
attr interpolationmode none
attr source packetReceivedFromUpper
attr title "packets received from higher layer, count"
scalar NetworkModified.host[2].lo[0].lo rcvdPkFromHl:sum(packetBytes) 0
attr interpolationmode none
attr source packetReceivedFromUpper
attr title "packets received from higher layer, sum(packetBytes)"
scalar NetworkModified.host[2].lo[0].lo passedUpPk:count 0
attr interpolationmode none
attr source packetSentToUpper
attr title "packets passed to higher layer, count"
scalar NetworkModified.host[2].lo[0].lo passedUpPk:sum(packetBytes) 0
attr interpolationmode none
attr source packetSentToUpper
attr title "packets passed to higher layer, sum(packetBytes)"
scalar NetworkModified.host[2].wlan[0].mac.dcf.channelAccess.pendingQueue packetPopped:count 200
attr interpolationmode none
attr title "packet popped, count"
scalar NetworkModified.host[2].wlan[0].mac.dcf.channelAccess.pendingQueue packetPopped:sum(packetBytes) 32400
attr interpolationmode none
attr title "packet popped, sum(packetBytes)"
statistic NetworkModified.host[2].wlan[0].mac.dcf.channelAccess.pendingQueue queueingTime:histogram
field count 200
field mean 1.8056504707232
field stddev 2.1041522967015
field min 0
field max 6.285750112689
field sum 361.13009414464
field sqrsum 1533.1386451398
attr interpolationmode none
attr source queueingTime(packetPopped)
attr title "queueing times, histogram"
attr unit s
bin	-inf	0
bin	-0.5	0
bin	-0.42	0
bin	-0.34	0
bin	-0.26	0
bin	-0.18	0
bin	-0.1	0
bin	-0.02	84
bin	0.06	1
bin	0.14	3
bin	0.22	1
bin	0.3	3
bin	0.38	1
bin	0.46	3
bin	0.54	1
bin	0.62	3
bin	0.7	1
bin	0.78	2
bin	0.86	1
bin	0.94	2
bin	1.02	2
bin	1.1	1
bin	1.18	1
bin	1.26	2
bin	1.34	1
bin	1.42	2
bin	1.5	1
bin	1.58	1
bin	1.66	2
bin	1.74	1
bin	1.82	2
bin	1.9	1
bin	1.98	1
bin	2.06	1
bin	2.14	2
bin	2.22	1
bin	2.3	2
bin	2.38	1
bin	2.46	1
bin	2.54	2
bin	2.62	1
bin	2.7	1
bin	2.78	1
bin	2.86	2
bin	2.94	1
bin	3.02	2
bin	3.1	1
bin	3.18	2
bin	3.26	1
bin	3.34	1
bin	3.42	2
bin	3.5	1
bin	3.58	2
bin	3.66	2
bin	3.74	1
bin	3.82	1
bin	3.9	1
bin	3.98	2
bin	4.06	1
bin	4.14	1
bin	4.22	2
bin	4.3	1
bin	4.38	2
bin	4.46	1
bin	4.54	1
bin	4.62	2
bin	4.7	1
bin	4.78	2
bin	4.86	2
bin	4.94	1
bin	5.02	2
bin	5.1	1
bin	5.18	2
bin	5.26	0
bin	5.34	1
bin	5.42	3
bin	5.5	0
bin	5.58	2
bin	5.66	2
bin	5.74	1
bin	5.82	1
bin	5.9	2
bin	5.98	1
bin	6.06	1
bin	6.14	3
bin	6.22	2
bin	6.3	0
scalar NetworkModified.host[2].wlan[0].mac.dcf.channelAccess.pendingQueue queueLength:max 101
attr interpolationmode sample-hold
attr source "count(packetPushed) - count(packetPopped) - count(packetRemoved) - count(packetDropped)"
attr title "queue length, max"
scalar NetworkModified.host[2].wlan[0].mac.dcf.channelAccess.pendingQueue queueLength:timeavg 69.921166660805
attr interpolationmode sample-hold
attr source "count(packetPushed) - count(packetPopped) - count(packetRemoved) - count(packetDropped)"
attr title "queue length, timeavg"
scalar NetworkModified.host[2].wlan[0].mac.dcf.channelAccess.pendingQueue packetPushed:count 514
attr interpolationmode none
attr title "packet pushed, count"
scalar NetworkModified.host[2].wlan[0].mac.dcf.channelAccess.pendingQueue packetPushed:sum(packetBytes) 83268
attr interpolationmode none
attr title "packet pushed, sum(packetBytes)"
scalar NetworkModified.host[2].wlan[0].mac.dcf.channelAccess.pendingQueue packetDropQueueOverflow:count 215
attr interpolationmode none
attr source packetDropReasonIsQueueOverflow(packetDropped)
attr title "packet drops: queue overflow, count"
scalar NetworkModified.host[2].wlan[0].mac.dcf.channelAccess.pendingQueue packetDropQueueOverflow:sum(packetBytes) 34830
attr interpolationmode none
attr source packetDropReasonIsQueueOverflow(packetDropped)
attr title "packet drops: queue overflow, sum(packetBytes)"
scalar NetworkModified.host[2].wlan[0].mac.dcf.channelAccess.pendingQueue packetRemoved:count 0
attr interpolationmode none
attr title "packets removed, count"
scalar NetworkModified.host[2].wlan[0].mac.dcf.channelAccess.pendingQueue packetRemoved:sum(packetBytes) 0
attr interpolationmode none
attr title "packets removed, sum(packetBytes)"
statistic NetworkModified.host[2].wlan[0].mac.dcf.channelAccess.inProgressFrames queueingTime:histogram
field count 198
field mean 0.081629432072318
field stddev 0.069949596713922
field min 0.000126067086
field max 0.191221263084
field sum 16.162627550319
field sqrsum 2.2832564855757
attr interpolationmode none
attr source queueingTime(packetDequeued)
attr title "queueing times, histogram"
bin	-inf	0
bin	0	78
bin	0.005	0
bin	0.01	1
bin	0.015	1
bin	0.02	0
bin	0.025	1
bin	0.03	0
bin	0.035	1
bin	0.04	0
bin	0.045	0
bin	0.05	0
bin	0.055	0
bin	0.06	0
bin	0.065	0
bin	0.07	2
bin	0.075	1
bin	0.08	0
bin	0.085	1
bin	0.09	3
bin	0.095	3
bin	0.1	1
bin	0.105	0
bin	0.11	4
bin	0.115	6
bin	0.12	9
bin	0.125	8
bin	0.13	8
bin	0.135	13
bin	0.14	16
bin	0.145	5
bin	0.15	10
bin	0.155	6
bin	0.16	5
bin	0.165	5
bin	0.17	1
bin	0.175	7
bin	0.18	0
bin	0.185	1
bin	0.19	1
bin	0.195	0
bin	0.2	0
bin	0.205	0
bin	0.21	0
bin	0.215	0
bin	0.22	0
bin	0.225	0
bin	0.23	0
bin	0.235	0
bin	0.24	0
scalar NetworkModified.host[2].wlan[0].mac.dcf.channelAccess.inProgressFrames queueLength:max 2
attr interpolationmode sample-hold
attr source "count(packetEnqueued) - count(packetDequeued)"
attr title "queue length, max"
scalar NetworkModified.host[2].wlan[0].mac.dcf.channelAccess.inProgressFrames queueLength:timeavg 1.5790059339667
attr interpolationmode sample-hold
attr source "count(packetEnqueued) - count(packetDequeued)"
attr title "queue length, timeavg"
scalar NetworkModified.host[2].wlan[0].mac.dcf.channelAccess.contention channelAccessGranted:count 941
attr title "channel access granted, count"
scalar NetworkModified.host[2].wlan[0].mac.dcf.channelAccess.contention stateChanged:count 8664
attr interpolationmode none
attr title "contention state changed, count"
scalar NetworkModified.host[2].wlan[0].mac.dcf.channelAccess channelOwnershipChanged:count 1882
attr interpolationmode sample-hold
attr title "channel ownership, count"
scalar NetworkModified.host[2].wlan[0].mac.dcf.originatorMacDataService packetAggregated:count 0
attr title "packets aggregated, count"
scalar NetworkModified.host[2].wlan[0].mac.dcf.originatorMacDataService packetFragmented:count 0
attr title "packets fragmented, count"
scalar NetworkModified.host[2].wlan[0].mac.dcf.recipientMacDataService packetDeaggregated:count 0
attr title "packets deaggregated, count"
scalar NetworkModified.host[2].wlan[0].mac.dcf.recipientMacDataService packetDefragmented:count 0
attr title "packets defragmented, count"
scalar NetworkModified.host[2].wlan[0].mac.dcf.recipientMacDataService packetDropDuplicateDetected:count 0
attr interpolationmode none
attr source packetDropReasonIsDuplicateDetected(packetDropped)
attr title "packet drops: duplicate detected, count"
scalar NetworkModified.host[2].wlan[0].mac.dcf.recipientMacDataService packetDropDuplicateDetected:sum(packetBytes) 0
attr interpolationmode none
attr source packetDropReasonIsDuplicateDetected(packetDropped)
attr title "packet drops: duplicate detected, sum(packetBytes)"
scalar NetworkModified.host[2].wlan[0].mac.dcf.recoveryProcedure retryLimitReached:count 118
attr title "retry limit reached, count"
scalar NetworkModified.host[2].wlan[0].mac.dcf frameSequenceFinished:count 941
attr title "finished frame sequences, count"
statistic NetworkModified.host[2].wlan[0].mac.dcf frameSequenceDuration:histogram
field count 941
field mean 0.00013614420321148
field stddev 3.7229724898708e-06
field min 0.000126067086
field max 0.000202165034
field sum 0.128111695222
field sqrsum 1.7454693560781e-05
attr source frameSequenceDuration(frameSequenceFinished)
attr title "frame sequence durations, histogram"
bin	-inf	0
bin	0.000106	0
bin	0.000108	0
bin	0.00011	0
bin	0.000112	0
bin	0.000114	0
bin	0.000116	0
bin	0.000118	0
bin	0.00012	0
bin	0.000122	0
bin	0.000124	0
bin	0.000126	80
bin	0.000128	0
bin	0.00013	0
bin	0.000132	0
bin	0.000134	0
bin	0.000136	860
bin	0.000138	0
bin	0.00014	0
bin	0.000142	0
bin	0.000144	0
bin	0.000146	0
bin	0.000148	0
bin	0.00015	0
bin	0.000152	0
bin	0.000154	0
bin	0.000156	0
bin	0.000158	0
bin	0.00016	0
bin	0.000162	0
bin	0.000164	0
bin	0.000166	0
bin	0.000168	0
bin	0.00017	0
bin	0.000172	0
bin	0.000174	0
bin	0.000176	0
bin	0.000178	0
bin	0.00018	0
bin	0.000182	0
bin	0.000184	0
bin	0.000186	0
bin	0.000188	0
bin	0.00019	0
bin	0.000192	0
bin	0.000194	0
bin	0.000196	0
bin	0.000198	0
bin	0.0002	0
bin	0.000202	1
bin	0.000204	0
bin	0.000206	0
bin	0.000208	0
bin	0.00021	0
bin	0.000212	0
bin	0.000214	0
bin	0.000216	0
bin	0.000218	0
bin	0.00022	0
bin	0.000222	0
statistic NetworkModified.host[2].wlan[0].mac.dcf frameSequenceNumPackets:histogram
field count 941
field mean 2
field stddev 0
field min 2
field max 2
field sum 1882
field sqrsum 3764
attr source frameSequenceNumPackets(frameSequenceFinished)
attr title "frame sequences: number of packets, histogram"
bin	-inf	0
bin	1	0
bin	2	941
bin	3	0
scalar NetworkModified.host[2].wlan[0].mac.dcf packetReceivedFromPeer:count 80
attr interpolationmode none
attr title "packets received, count"
scalar NetworkModified.host[2].wlan[0].mac.dcf packetReceivedFromPeer:sum(packetBytes) 1120
attr interpolationmode none
attr title "packets received, sum(packetBytes)"
scalar NetworkModified.host[2].wlan[0].mac.dcf packetReceivedFromPeerUnicast:count 80
attr interpolationmode none
attr source ieee80211Unicast(packetReceivedFromPeer)
attr title "packets received: unicast, count"
scalar NetworkModified.host[2].wlan[0].mac.dcf packetReceivedFromPeerUnicast:sum(packetBytes) 1120
attr interpolationmode none
attr source ieee80211Unicast(packetReceivedFromPeer)
attr title "packets received: unicast, sum(packetBytes)"
scalar NetworkModified.host[2].wlan[0].mac.dcf packetReceivedFromPeerMulticast:count 0
attr interpolationmode none
attr source ieee80211Multicast(packetReceivedFromPeer)
attr title "packets received: multicast, count"
scalar NetworkModified.host[2].wlan[0].mac.dcf packetReceivedFromPeerMulticast:sum(packetBytes) 0
attr interpolationmode none
attr source ieee80211Multicast(packetReceivedFromPeer)
attr title "packets received: multicast, sum(packetBytes)"
scalar NetworkModified.host[2].wlan[0].mac.dcf packetReceivedFromPeerBroadcast:count 0
attr interpolationmode none
attr source ieee80211Broadcast(packetReceivedFromPeer)
attr title "packets received: broadcast, count"
scalar NetworkModified.host[2].wlan[0].mac.dcf packetReceivedFromPeerBroadcast:sum(packetBytes) 0
attr interpolationmode none
attr source ieee80211Broadcast(packetReceivedFromPeer)
attr title "packets received: broadcast, sum(packetBytes)"
scalar NetworkModified.host[2].wlan[0].mac.dcf packetReceivedFromPeerWithRetry:count 0
attr interpolationmode none
attr source ieee80211Retry(packetReceivedFromPeer)
attr title "packets received: with retry, count"
scalar NetworkModified.host[2].wlan[0].mac.dcf packetReceivedFromPeerWithRetry:sum(packetBytes) 0
attr interpolationmode none
attr source ieee80211Retry(packetReceivedFromPeer)
attr title "packets received: with retry, sum(packetBytes)"
scalar NetworkModified.host[2].wlan[0].mac.dcf packetReceivedFromPeerWithoutRetry:count 80
attr interpolationmode none
attr source ieee80211NotRetry(packetReceivedFromPeer)
attr title "packets received: without retry, count"
scalar NetworkModified.host[2].wlan[0].mac.dcf packetReceivedFromPeerWithoutRetry:sum(packetBytes) 1120
attr interpolationmode none
attr source ieee80211NotRetry(packetReceivedFromPeer)
attr title "packets received: without retry, sum(packetBytes)"
scalar NetworkModified.host[2].wlan[0].mac.dcf packetSentToPeer:count 941
attr interpolationmode none
attr title "packets sent, count"
scalar NetworkModified.host[2].wlan[0].mac.dcf packetSentToPeer:sum(packetBytes) 152442
attr interpolationmode none
attr title "packets sent, sum(packetBytes)"
scalar NetworkModified.host[2].wlan[0].mac.dcf packetSentToPeerUnicast:count 941
attr interpolationmode none
attr source ieee80211Unicast(packetSentToPeer)
attr title "packets sent: unicast, count"
scalar NetworkModified.host[2].wlan[0].mac.dcf packetSentToPeerUnicast:sum(packetBytes) 152442
attr interpolationmode none
attr source ieee80211Unicast(packetSentToPeer)
attr title "packets sent: unicast, sum(packetBytes)"
scalar NetworkModified.host[2].wlan[0].mac.dcf packetSentToPeerMulticast:count 0
attr interpolationmode none
attr source ieee80211Multicast(packetSentToPeer)
attr title "packets sent: multicast, count"
scalar NetworkModified.host[2].wlan[0].mac.dcf packetSentToPeerMulticast:sum(packetBytes) 0
attr interpolationmode none
attr source ieee80211Multicast(packetSentToPeer)
attr title "packets sent: multicast, sum(packetBytes)"
scalar NetworkModified.host[2].wlan[0].mac.dcf packetSentToPeerBroadcast:count 0
attr interpolationmode none
attr source ieee80211Broadcast(packetSentToPeer)
attr title "packets sent: broadcast , count"
scalar NetworkModified.host[2].wlan[0].mac.dcf packetSentToPeerBroadcast:sum(packetBytes) 0
attr interpolationmode none
attr source ieee80211Broadcast(packetSentToPeer)
attr title "packets sent: broadcast , sum(packetBytes)"
scalar NetworkModified.host[2].wlan[0].mac.dcf packetSentToPeerWithRetry:count 742
attr interpolationmode none
attr source ieee80211Retry(packetSentToPeer)
attr title "packets sent: with retry, count"
scalar NetworkModified.host[2].wlan[0].mac.dcf packetSentToPeerWithRetry:sum(packetBytes) 120204
attr interpolationmode none
attr source ieee80211Retry(packetSentToPeer)
attr title "packets sent: with retry, sum(packetBytes)"
scalar NetworkModified.host[2].wlan[0].mac.dcf packetSentToPeerWithoutRetry:count 199
attr interpolationmode none
attr source ieee80211NotRetry(packetSentToPeer)
attr title "packets sent: without retry, count"
scalar NetworkModified.host[2].wlan[0].mac.dcf packetSentToPeerWithoutRetry:sum(packetBytes) 32238
attr interpolationmode none
attr source ieee80211NotRetry(packetSentToPeer)
attr title "packets sent: without retry, sum(packetBytes)"
scalar NetworkModified.host[2].wlan[0].mac.dcf packetDrop:count 526
attr interpolationmode none
attr source packetDropped
attr title "packet drops, count"
scalar NetworkModified.host[2].wlan[0].mac.dcf packetDrop:sum(packetBytes) 76776
attr interpolationmode none
attr source packetDropped
attr title "packet drops, sum(packetBytes)"
scalar NetworkModified.host[2].wlan[0].mac.dcf packetDropNotAddressedToUs:count 193
attr interpolationmode none
attr source packetDropReasonIsNotAddressedToUs(packetDropped)
attr title "packet drops: not addressed to us, count"
scalar NetworkModified.host[2].wlan[0].mac.dcf packetDropNotAddressedToUs:sum(packetBytes) 22830
attr interpolationmode none
attr source packetDropReasonIsNotAddressedToUs(packetDropped)
attr title "packet drops: not addressed to us, sum(packetBytes)"
scalar NetworkModified.host[2].wlan[0].mac.dcf packetDropQueueOverflow:count 215
attr interpolationmode none
attr source packetDropReasonIsQueueOverflow(packetDropped)
attr title "packet drops: queue overflow, count"
scalar NetworkModified.host[2].wlan[0].mac.dcf packetDropQueueOverflow:sum(packetBytes) 34830
attr interpolationmode none
attr source packetDropReasonIsQueueOverflow(packetDropped)
attr title "packet drops: queue overflow, sum(packetBytes)"
scalar NetworkModified.host[2].wlan[0].mac.dcf packetDropRetryLimitReached:count 118
attr interpolationmode none
attr source packetDropReasonIsRetryLimitReached(packetDropped)
attr title "packet drops: retry limit reached, count"
scalar NetworkModified.host[2].wlan[0].mac.dcf packetDropRetryLimitReached:sum(packetBytes) 19116
attr interpolationmode none
attr source packetDropReasonIsRetryLimitReached(packetDropped)
attr title "packet drops: retry limit reached, sum(packetBytes)"
scalar NetworkModified.host[2].wlan[0].mac.dcf linkBroken:count 118
attr interpolationmode none
attr title "link breaks, count"
scalar NetworkModified.host[2].wlan[0].mac packetReceivedFromLower:count 274
attr interpolationmode none
attr title "packets received from lower layer, count"
scalar NetworkModified.host[2].wlan[0].mac packetReceivedFromLower:sum(packetBytes) 24112
attr interpolationmode none
attr title "packets received from lower layer, sum(packetBytes)"
scalar NetworkModified.host[2].wlan[0].mac packetSentToLower:count 941
attr interpolationmode none
attr title "packets sent to lower layer, count"
scalar NetworkModified.host[2].wlan[0].mac packetSentToLower:sum(packetBytes) 152442
attr interpolationmode none
attr title "packets sent to lower layer, sum(packetBytes)"
scalar NetworkModified.host[2].wlan[0].mac packetReceivedFromUpper:count 514
attr interpolationmode none
attr title "packets received from upper layer, count"
scalar NetworkModified.host[2].wlan[0].mac packetReceivedFromUpper:sum(packetBytes) 68876
attr interpolationmode none
attr title "packets received from upper layer, sum(packetBytes)"
scalar NetworkModified.host[2].wlan[0].mac packetSentToUpper:count 0
attr interpolationmode none
attr title "packets sent to upper layer, count"
scalar NetworkModified.host[2].wlan[0].mac packetSentToUpper:sum(packetBytes) 0
attr interpolationmode none
attr title "packets sent to upper layer, sum(packetBytes)"
scalar NetworkModified.host[2].wlan[0].mac packetDrop:count 526
attr interpolationmode none
attr source packetDropped
attr title "packet drops, count"
scalar NetworkModified.host[2].wlan[0].mac packetDrop:sum(packetBytes) 76776
attr interpolationmode none
attr source packetDropped
attr title "packet drops, sum(packetBytes)"
scalar NetworkModified.host[2].wlan[0].mac packetDropIncorrectlyReceived:count 0
attr interpolationmode none
attr source packetDropReasonIsIncorrectlyReceived(packetDropped)
attr title "packet drops: incorrectly received, count"
scalar NetworkModified.host[2].wlan[0].mac packetDropIncorrectlyReceived:sum(packetBytes) 0
attr interpolationmode none
attr source packetDropReasonIsIncorrectlyReceived(packetDropped)
attr title "packet drops: incorrectly received, sum(packetBytes)"
scalar NetworkModified.host[2].wlan[0].mac packetDropNotAddressedToUs:count 193
attr interpolationmode none
attr source packetDropReasonIsNotAddressedToUs(packetDropped)
attr title "packet drops: not addressed to us, count"
scalar NetworkModified.host[2].wlan[0].mac packetDropNotAddressedToUs:sum(packetBytes) 22830
attr interpolationmode none
attr source packetDropReasonIsNotAddressedToUs(packetDropped)
attr title "packet drops: not addressed to us, sum(packetBytes)"
scalar NetworkModified.host[2].wlan[0].mac packetDropQueueOverflow:count 215
attr interpolationmode none
attr source packetDropReasonIsQueueOverflow(packetDropped)
attr title "packet drops: queue overflow, count"
scalar NetworkModified.host[2].wlan[0].mac packetDropQueueOverflow:sum(packetBytes) 34830
attr interpolationmode none
attr source packetDropReasonIsQueueOverflow(packetDropped)
attr title "packet drops: queue overflow, sum(packetBytes)"
scalar NetworkModified.host[2].wlan[0].mac packetDropRetryLimitReached:count 118
attr interpolationmode none
attr source packetDropReasonIsRetryLimitReached(packetDropped)
attr title "packet drops: retry limit reached, count"
[...]
attr title "packets deaggregated, count"
scalar NetworkModified.host[19].wlan[0].mac.dcf.recipientMacDataService packetDefragmented:count 79
attr title "packets defragmented, count"
scalar NetworkModified.host[19].wlan[0].mac.dcf.recipientMacDataService packetDropDuplicateDetected:count 0
attr interpolationmode none
attr source packetDropReasonIsDuplicateDetected(packetDropped)
attr title "packet drops: duplicate detected, count"
scalar NetworkModified.host[19].wlan[0].mac.dcf.recipientMacDataService packetDropDuplicateDetected:sum(packetBytes) 0
attr interpolationmode none
attr source packetDropReasonIsDuplicateDetected(packetDropped)
attr title "packet drops: duplicate detected, sum(packetBytes)"
scalar NetworkModified.host[19].wlan[0].mac.dcf.recoveryProcedure retryLimitReached:count 0
attr title "retry limit reached, count"
scalar NetworkModified.host[19].wlan[0].mac.dcf frameSequenceFinished:count 0
attr title "finished frame sequences, count"
statistic NetworkModified.host[19].wlan[0].mac.dcf frameSequenceDuration:histogram
field count 0
field mean -nan
field stddev -nan
field min -nan
field max -nan
field sum 0
field sqrsum 0
attr source frameSequenceDuration(frameSequenceFinished)
attr title "frame sequence durations, histogram"
bin	-inf	0
bin	0	0
bin	1	0
statistic NetworkModified.host[19].wlan[0].mac.dcf frameSequenceNumPackets:histogram
field count 0
field mean -nan
field stddev -nan
field min -nan
field max -nan
field sum 0
field sqrsum 0
attr source frameSequenceNumPackets(frameSequenceFinished)
attr title "frame sequences: number of packets, histogram"
bin	-inf	0
bin	0	0
bin	1	0
scalar NetworkModified.host[19].wlan[0].mac.dcf packetReceivedFromPeer:count 79
attr interpolationmode none
attr title "packets received, count"
scalar NetworkModified.host[19].wlan[0].mac.dcf packetReceivedFromPeer:sum(packetBytes) 12798
attr interpolationmode none
attr title "packets received, sum(packetBytes)"
scalar NetworkModified.host[19].wlan[0].mac.dcf packetReceivedFromPeerUnicast:count 79
attr interpolationmode none
attr source ieee80211Unicast(packetReceivedFromPeer)
attr title "packets received: unicast, count"
scalar NetworkModified.host[19].wlan[0].mac.dcf packetReceivedFromPeerUnicast:sum(packetBytes) 12798
attr interpolationmode none
attr source ieee80211Unicast(packetReceivedFromPeer)
attr title "packets received: unicast, sum(packetBytes)"
scalar NetworkModified.host[19].wlan[0].mac.dcf packetReceivedFromPeerMulticast:count 0
attr interpolationmode none
attr source ieee80211Multicast(packetReceivedFromPeer)
attr title "packets received: multicast, count"
scalar NetworkModified.host[19].wlan[0].mac.dcf packetReceivedFromPeerMulticast:sum(packetBytes) 0
attr interpolationmode none
attr source ieee80211Multicast(packetReceivedFromPeer)
attr title "packets received: multicast, sum(packetBytes)"
scalar NetworkModified.host[19].wlan[0].mac.dcf packetReceivedFromPeerBroadcast:count 0
attr interpolationmode none
attr source ieee80211Broadcast(packetReceivedFromPeer)
attr title "packets received: broadcast, count"
scalar NetworkModified.host[19].wlan[0].mac.dcf packetReceivedFromPeerBroadcast:sum(packetBytes) 0
attr interpolationmode none
attr source ieee80211Broadcast(packetReceivedFromPeer)
attr title "packets received: broadcast, sum(packetBytes)"
scalar NetworkModified.host[19].wlan[0].mac.dcf packetReceivedFromPeerWithRetry:count 1
attr interpolationmode none
attr source ieee80211Retry(packetReceivedFromPeer)
attr title "packets received: with retry, count"
scalar NetworkModified.host[19].wlan[0].mac.dcf packetReceivedFromPeerWithRetry:sum(packetBytes) 162
attr interpolationmode none
attr source ieee80211Retry(packetReceivedFromPeer)
attr title "packets received: with retry, sum(packetBytes)"
scalar NetworkModified.host[19].wlan[0].mac.dcf packetReceivedFromPeerWithoutRetry:count 78
attr interpolationmode none
attr source ieee80211NotRetry(packetReceivedFromPeer)
attr title "packets received: without retry, count"
scalar NetworkModified.host[19].wlan[0].mac.dcf packetReceivedFromPeerWithoutRetry:sum(packetBytes) 12636
attr interpolationmode none
attr source ieee80211NotRetry(packetReceivedFromPeer)
attr title "packets received: without retry, sum(packetBytes)"
scalar NetworkModified.host[19].wlan[0].mac.dcf packetSentToPeer:count 79
attr interpolationmode none
attr title "packets sent, count"
scalar NetworkModified.host[19].wlan[0].mac.dcf packetSentToPeer:sum(packetBytes) 1106
attr interpolationmode none
attr title "packets sent, sum(packetBytes)"
scalar NetworkModified.host[19].wlan[0].mac.dcf packetSentToPeerUnicast:count 79
attr interpolationmode none
attr source ieee80211Unicast(packetSentToPeer)
attr title "packets sent: unicast, count"
scalar NetworkModified.host[19].wlan[0].mac.dcf packetSentToPeerUnicast:sum(packetBytes) 1106
attr interpolationmode none
attr source ieee80211Unicast(packetSentToPeer)
attr title "packets sent: unicast, sum(packetBytes)"
scalar NetworkModified.host[19].wlan[0].mac.dcf packetSentToPeerMulticast:count 0
attr interpolationmode none
attr source ieee80211Multicast(packetSentToPeer)
attr title "packets sent: multicast, count"
scalar NetworkModified.host[19].wlan[0].mac.dcf packetSentToPeerMulticast:sum(packetBytes) 0
attr interpolationmode none
attr source ieee80211Multicast(packetSentToPeer)
attr title "packets sent: multicast, sum(packetBytes)"
scalar NetworkModified.host[19].wlan[0].mac.dcf packetSentToPeerBroadcast:count 0
attr interpolationmode none
attr source ieee80211Broadcast(packetSentToPeer)
attr title "packets sent: broadcast , count"
scalar NetworkModified.host[19].wlan[0].mac.dcf packetSentToPeerBroadcast:sum(packetBytes) 0
attr interpolationmode none
attr source ieee80211Broadcast(packetSentToPeer)
attr title "packets sent: broadcast , sum(packetBytes)"
scalar NetworkModified.host[19].wlan[0].mac.dcf packetSentToPeerWithRetry:count 0
attr interpolationmode none
attr source ieee80211Retry(packetSentToPeer)
attr title "packets sent: with retry, count"
scalar NetworkModified.host[19].wlan[0].mac.dcf packetSentToPeerWithRetry:sum(packetBytes) 0
attr interpolationmode none
attr source ieee80211Retry(packetSentToPeer)
attr title "packets sent: with retry, sum(packetBytes)"
scalar NetworkModified.host[19].wlan[0].mac.dcf packetSentToPeerWithoutRetry:count 79
attr interpolationmode none
attr source ieee80211NotRetry(packetSentToPeer)
attr title "packets sent: without retry, count"
scalar NetworkModified.host[19].wlan[0].mac.dcf packetSentToPeerWithoutRetry:sum(packetBytes) 1106
attr interpolationmode none
attr source ieee80211NotRetry(packetSentToPeer)
attr title "packets sent: without retry, sum(packetBytes)"
scalar NetworkModified.host[19].wlan[0].mac.dcf packetDrop:count 280
attr interpolationmode none
attr source packetDropped
attr title "packet drops, count"
scalar NetworkModified.host[19].wlan[0].mac.dcf packetDrop:sum(packetBytes) 17980
attr interpolationmode none
attr source packetDropped
attr title "packet drops, sum(packetBytes)"
scalar NetworkModified.host[19].wlan[0].mac.dcf packetDropNotAddressedToUs:count 280
attr interpolationmode none
attr source packetDropReasonIsNotAddressedToUs(packetDropped)
attr title "packet drops: not addressed to us, count"
scalar NetworkModified.host[19].wlan[0].mac.dcf packetDropNotAddressedToUs:sum(packetBytes) 17980
attr interpolationmode none
attr source packetDropReasonIsNotAddressedToUs(packetDropped)
attr title "packet drops: not addressed to us, sum(packetBytes)"
scalar NetworkModified.host[19].wlan[0].mac.dcf packetDropQueueOverflow:count 0
attr interpolationmode none
attr source packetDropReasonIsQueueOverflow(packetDropped)
attr title "packet drops: queue overflow, count"
scalar NetworkModified.host[19].wlan[0].mac.dcf packetDropQueueOverflow:sum(packetBytes) 0
attr interpolationmode none
attr source packetDropReasonIsQueueOverflow(packetDropped)
attr title "packet drops: queue overflow, sum(packetBytes)"
scalar NetworkModified.host[19].wlan[0].mac.dcf packetDropRetryLimitReached:count 0
attr interpolationmode none
attr source packetDropReasonIsRetryLimitReached(packetDropped)
attr title "packet drops: retry limit reached, count"
scalar NetworkModified.host[19].wlan[0].mac.dcf packetDropRetryLimitReached:sum(packetBytes) 0
attr interpolationmode none
attr source packetDropReasonIsRetryLimitReached(packetDropped)
attr title "packet drops: retry limit reached, sum(packetBytes)"
scalar NetworkModified.host[19].wlan[0].mac.dcf linkBroken:count 0
attr interpolationmode none
attr title "link breaks, count"
scalar NetworkModified.host[19].wlan[0].mac packetReceivedFromLower:count 361
attr interpolationmode none
attr title "packets received from lower layer, count"
scalar NetworkModified.host[19].wlan[0].mac packetReceivedFromLower:sum(packetBytes) 30954
attr interpolationmode none
attr title "packets received from lower layer, sum(packetBytes)"
scalar NetworkModified.host[19].wlan[0].mac packetSentToLower:count 79
attr interpolationmode none
attr title "packets sent to lower layer, count"
scalar NetworkModified.host[19].wlan[0].mac packetSentToLower:sum(packetBytes) 1106
attr interpolationmode none
attr title "packets sent to lower layer, sum(packetBytes)"
scalar NetworkModified.host[19].wlan[0].mac packetReceivedFromUpper:count 0
attr interpolationmode none
attr title "packets received from upper layer, count"
scalar NetworkModified.host[19].wlan[0].mac packetReceivedFromUpper:sum(packetBytes) 0
attr interpolationmode none
attr title "packets received from upper layer, sum(packetBytes)"
scalar NetworkModified.host[19].wlan[0].mac packetSentToUpper:count 79
attr interpolationmode none
attr title "packets sent to upper layer, count"
scalar NetworkModified.host[19].wlan[0].mac packetSentToUpper:sum(packetBytes) 10586
attr interpolationmode none
attr title "packets sent to upper layer, sum(packetBytes)"
scalar NetworkModified.host[19].wlan[0].mac packetDrop:count 282
attr interpolationmode none
attr source packetDropped
attr title "packet drops, count"
scalar NetworkModified.host[19].wlan[0].mac packetDrop:sum(packetBytes) 18156
attr interpolationmode none
attr source packetDropped
attr title "packet drops, sum(packetBytes)"
scalar NetworkModified.host[19].wlan[0].mac packetDropIncorrectlyReceived:count 2
attr interpolationmode none
attr source packetDropReasonIsIncorrectlyReceived(packetDropped)
attr title "packet drops: incorrectly received, count"
scalar NetworkModified.host[19].wlan[0].mac packetDropIncorrectlyReceived:sum(packetBytes) 176
attr interpolationmode none
attr source packetDropReasonIsIncorrectlyReceived(packetDropped)
attr title "packet drops: incorrectly received, sum(packetBytes)"
scalar NetworkModified.host[19].wlan[0].mac packetDropNotAddressedToUs:count 280
attr interpolationmode none
attr source packetDropReasonIsNotAddressedToUs(packetDropped)
attr title "packet drops: not addressed to us, count"
scalar NetworkModified.host[19].wlan[0].mac packetDropNotAddressedToUs:sum(packetBytes) 17980
attr interpolationmode none
attr source packetDropReasonIsNotAddressedToUs(packetDropped)
attr title "packet drops: not addressed to us, sum(packetBytes)"
scalar NetworkModified.host[19].wlan[0].mac packetDropQueueOverflow:count 0
attr interpolationmode none
attr source packetDropReasonIsQueueOverflow(packetDropped)
attr title "packet drops: queue overflow, count"
scalar NetworkModified.host[19].wlan[0].mac packetDropQueueOverflow:sum(packetBytes) 0
attr interpolationmode none
attr source packetDropReasonIsQueueOverflow(packetDropped)
attr title "packet drops: queue overflow, sum(packetBytes)"
scalar NetworkModified.host[19].wlan[0].mac packetDropRetryLimitReached:count 0
attr interpolationmode none
attr source packetDropReasonIsRetryLimitReached(packetDropped)
attr title "packet drops: retry limit reached, count"
scalar NetworkModified.host[19].wlan[0].mac packetDropRetryLimitReached:sum(packetBytes) 0
attr interpolationmode none
attr source packetDropReasonIsRetryLimitReached(packetDropped)
attr title "packet drops: retry limit reached, sum(packetBytes)"
scalar NetworkModified.host[19].wlan[0].mac packetDropDuplicateDetected:count 0
attr interpolationmode none
attr source packetDropReasonIsDuplicateDetected(packetDropped)
attr title "packet drops: duplicate detected, count"
scalar NetworkModified.host[19].wlan[0].mac packetDropDuplicateDetected:sum(packetBytes) 0
attr interpolationmode none
attr source packetDropReasonIsDuplicateDetected(packetDropped)
attr title "packet drops: duplicate detected, sum(packetBytes)"
scalar NetworkModified.host[19].wlan[0].mac packetDropOther:count 0
attr interpolationmode none
attr source packetDropReasonIsOther(packetDropped)
attr title "packet drops: other, count"
scalar NetworkModified.host[19].wlan[0].mac packetDropOther:sum(packetBytes) 0
attr interpolationmode none
attr source packetDropReasonIsOther(packetDropped)
attr title "packet drops: other, sum(packetBytes)"
scalar NetworkModified.host[19].wlan[0].mac linkBroken:count 0
attr interpolationmode none
attr title "link breaks, count"
statistic NetworkModified.host[19].wlan[0].radio radioChannel:histogram
field count 1
field mean 0
field stddev -nan
field min 0
field max 0
field sum 0
field sqrsum 0
attr interpolationmode sample-hold
attr source radioChannelChanged
attr title "Radio channel, histogram"
bin	-inf	0
bin	-0.5	0
bin	-0.48	0
bin	-0.46	0
bin	-0.44	0
bin	-0.42	0
bin	-0.4	0
bin	-0.38	0
bin	-0.36	0
bin	-0.34	0
bin	-0.32	0
bin	-0.3	0
bin	-0.28	0
bin	-0.26	0
bin	-0.24	0
bin	-0.22	0
bin	-0.2	0
bin	-0.18	0
bin	-0.16	0
bin	-0.14	0
bin	-0.12	0
bin	-0.1	0
bin	-0.08	0
bin	-0.06	0
bin	-0.04	0
bin	-0.02	0
bin	0	1
bin	0.02	0
bin	0.04	0
bin	0.06	0
bin	0.08	0
bin	0.1	0
bin	0.12	0
bin	0.14	0
bin	0.16	0
bin	0.18	0
bin	0.2	0
bin	0.22	0
bin	0.24	0
bin	0.26	0
bin	0.28	0
bin	0.3	0
bin	0.32	0
bin	0.34	0
bin	0.36	0
bin	0.38	0
bin	0.4	0
bin	0.42	0
bin	0.44	0
bin	0.46	0
bin	0.48	0
bin	0.5	0
scalar NetworkModified.host[19].wlan[0].radio radioMode:count 161
attr interpolationmode sample-hold
attr source radioModeChanged
attr title "Radio mode, count"
scalar NetworkModified.host[19].wlan[0].radio receptionState:count 883
attr interpolationmode sample-hold
attr source receptionStateChanged
attr title "Radio reception state, count"
scalar NetworkModified.host[19].wlan[0].radio transmissionState:count 316
attr interpolationmode sample-hold
attr source transmissionStateChanged
attr title "Radio transmission state, count"
statistic NetworkModified.host[19].wlan[0].radio minSnir:histogram
field count 361
field mean 14926.3705105
field stddev 29736.684875427
field min 13.741918938817
field max 303624.80096646
field sum 5388419.7542907
field sqrsum 398766903575.6
attr source minimumSnir(packetSentToUpper)
attr title "Min SNIR, histogram"
bin	-inf	0
bin	0	214
bin	5000	34
bin	10000	23
bin	15000	13
bin	20000	12
bin	25000	7
bin	30000	6
bin	35000	12
bin	40000	5
bin	45000	9
bin	50000	0
bin	55000	2
bin	60000	2
bin	65000	2
bin	70000	3
bin	75000	0
bin	80000	2
bin	85000	3
bin	90000	0
bin	95000	4
bin	100000	3
bin	105000	0
bin	110000	0
bin	115000	1
bin	120000	1
bin	125000	0
bin	130000	0
bin	135000	0
bin	140000	0
bin	145000	0
bin	150000	0
bin	155000	0
bin	160000	1
bin	165000	0
bin	170000	1
bin	175000	0
bin	180000	0
bin	185000	0
bin	190000	0
bin	195000	0
bin	200000	0
bin	205000	0
bin	210000	0
bin	215000	0
bin	220000	0
bin	225000	0
bin	230000	0
bin	235000	0
bin	240000	0
bin	245000	0
bin	250000	0
bin	255000	0
bin	260000	0
bin	265000	0
bin	270000	0
bin	275000	0
bin	280000	0
bin	285000	0
bin	290000	0
bin	295000	0
bin	300000	1
bin	305000	0
bin	310000	0
bin	315000	0
bin	320000	0
bin	325000	0
bin	330000	0
bin	335000	0
bin	340000	0
bin	345000	0
bin	350000	0
bin	355000	0
bin	360000	0
bin	365000	0
bin	370000	0
bin	375000	0
bin	380000	0
statistic NetworkModified.host[19].wlan[0].radio packetErrorRate:histogram
field count 361
field mean 0.0045045243467014
field stddev 0.06067928507294
field min 0
field max 0.88614690608323
field sum 1.6261332891592
field sqrsum 1.3328361862987
attr source packetErrorRate(packetSentToUpper)
attr title "Packet error rate, histogram"
bin	-inf	0
bin	-0.5	0
bin	-0.48	0
bin	-0.46	0
bin	-0.44	0
bin	-0.42	0
bin	-0.4	0
bin	-0.38	0
bin	-0.36	0
bin	-0.34	0
bin	-0.32	0
bin	-0.3	0
bin	-0.28	0
bin	-0.26	0
bin	-0.24	0
bin	-0.22	0
bin	-0.2	0
bin	-0.18	0
bin	-0.16	0
bin	-0.14	0
bin	-0.12	0
bin	-0.1	0
bin	-0.08	0
bin	-0.06	0
bin	-0.04	0
bin	-0.02	0
bin	0	359
bin	0.02	0
bin	0.04	0
bin	0.06	0
bin	0.08	0
bin	0.1	0
bin	0.12	0
bin	0.14	0
bin	0.16	0
bin	0.18	0
bin	0.2	0
bin	0.22	0
bin	0.24	0
bin	0.26	0
bin	0.28	0
bin	0.3	0
bin	0.32	0
bin	0.34	0
bin	0.36	0
bin	0.38	0
bin	0.4	0
bin	0.42	0
bin	0.44	0
bin	0.46	0
bin	0.48	0
bin	0.5	0
bin	0.52	0
bin	0.54	0
bin	0.56	0
bin	0.58	0
bin	0.6	0
bin	0.62	0
bin	0.64	0
bin	0.66	0
bin	0.68	0
bin	0.7	0
bin	0.72	1
bin	0.74	0
bin	0.76	0
bin	0.78	0
bin	0.8	0
bin	0.82	0
bin	0.84	0
bin	0.86	0
bin	0.88	1
bin	0.9	0
statistic NetworkModified.host[19].wlan[0].radio bitErrorRate:histogram
field count 0
field mean -nan
field stddev -nan
field min -nan
field max -nan
field sum 0
field sqrsum 0
attr source bitErrorRate(packetSentToUpper)
attr title "Bit error rate, histogram"
bin	-inf	0
bin	0	0
bin	1	0
statistic NetworkModified.host[19].wlan[0].radio symbolErrorRate:histogram
field count 0
field mean -nan
field stddev -nan
field min -nan
field max -nan
field sum 0
field sqrsum 0
attr source symbolErrorRate(packetSentToUpper)
attr title "Symbol error rate, histogram"
bin	-inf	0
bin	0	0
bin	1	0
scalar NetworkModified.host[19].udp packetReceived:count 79
attr interpolationmode none
attr source packetReceived
attr title "packets received, count"
scalar NetworkModified.host[19].udp packetReceived:sum(packetBytes) 8532
attr interpolationmode none
attr source packetReceived
attr title "packets received, sum(packetBytes)"
scalar NetworkModified.host[19].udp packetSent:count 0
attr interpolationmode none
attr source packetSent
attr title "packets sent, count"
scalar NetworkModified.host[19].udp packetSent:sum(packetBytes) 0
attr interpolationmode none
attr source packetSent
attr title "packets sent, sum(packetBytes)"
scalar NetworkModified.host[19].udp passedUpPk:count 79
attr interpolationmode none
attr source packetSentToUpper
attr title "packets passed up, count"
scalar NetworkModified.host[19].udp droppedPkWrongPort:count 0
attr interpolationmode none
attr source packetDropReasonIsNoPortFound(packetDropped)
attr title "packets dropped (wrong port), count"
scalar NetworkModified.host[19].udp droppedPkBadChecksum:count 0
attr interpolationmode none
attr source packetDropReasonIsIncorrectlyReceived(packetDropped)
attr title "packets dropped (checksum error), count"
scalar NetworkModified.host[19].app[0] packetReceived:count 79
attr interpolationmode none
attr source packetReceived
attr title "packets received, count"
scalar NetworkModified.host[19].app[0] packetReceived:sum(packetBytes) 7900
attr interpolationmode none
attr source packetReceived
attr title "packets received, sum(packetBytes)"
statistic NetworkModified.host[19].app[0] endToEndDelay:histogram
field count 79
field mean 0.044991665805177
field stddev 0.13381673844222
field min 0.000790153366
field max 0.863287451187
field sum 3.554341598609
field sqrsum 1.5566554693725
attr interpolationmode none
attr source dataAge(packetReceived)
attr title "end-to-end delay, histogram"
attr unit s
bin	-inf	0
bin	0	67
bin	0.02	0
bin	0.04	3
bin	0.06	0
bin	0.08	0
bin	0.1	0
bin	0.12	0
bin	0.14	0
bin	0.16	2
bin	0.18	0
bin	0.2	0
bin	0.22	1
bin	0.24	1
bin	0.26	0
bin	0.28	0
bin	0.3	1
bin	0.32	0
bin	0.34	0
bin	0.36	0
bin	0.38	1
bin	0.4	1
bin	0.42	0
bin	0.44	0
bin	0.46	1
bin	0.48	0
bin	0.5	0
bin	0.52	0
bin	0.54	0
bin	0.56	0
bin	0.58	0
bin	0.6	0
bin	0.62	0
bin	0.64	0
bin	0.66	0
bin	0.68	0
bin	0.7	0
bin	0.72	0
bin	0.74	0
bin	0.76	0
bin	0.78	0
bin	0.8	0
bin	0.82	0
bin	0.84	0
bin	0.86	1
bin	0.88	0
bin	0.9	0
bin	0.92	0
bin	0.94	0
bin	0.96	0
bin	0.98	0
bin	1	0
bin	1.02	0
bin	1.04	0
bin	1.06	0
bin	1.08	0

