version 2
run Mobility-0-20200520-23:32:36-7560
attr configname Mobility
attr datetime 20200520-23:32:36
attr experiment Mobility
attr inifile omnetpp.ini
attr iterationvars ""
attr iterationvarsf ""
attr measurement ""
attr network NetworkModified
attr processid 7560
attr repetition 0
attr replication #0
attr resultdir results
attr runnumber 0
attr seedset 0
param **.host*.mobility.typename "\"MassMobility\""
param **.host*.mobility.initFromDisplayString false
param **.host*.mobility.changeInterval "truncnormal(2s, 0.5s)"
param **.host*.mobility.angleDelta "normal(0deg, 30deg)"
param **.host*.mobility.speed "truncnormal(20mps, 8mps)"
param **.host*.mobility.updateInterval 100ms
param **.networkConfigurator.typename "\"NextHopNetworkConfigurator\""
param *.host[*].wlan[2].radio.displayCommunicationRange true
param *.visualizer.sceneVisualizer.descriptionFigure "\"title\""
param *.visualizer.mediumVisualizer.displaySignals true
param *.visualizer.physicalLinkVisualizer.displayLinks true
param *.host[*].wlan[0].radio.transmitter.communicationRange 500m
param *.host[*].wlan[0].radio.displayCommunicationRange true
param **.host[*].mobility.initialZ 0m
param **.host[0].mobility.initialX 100m
param **.host[0].mobility.initialY 100m
param **.host[1].mobility.initialX 200m
param **.host[1].mobility.initialY 100m
param **.host[2].mobility.initialX 100m
param **.host[2].mobility.initialY 200m
param **.host[3].mobility.initialX 150m
param **.host[3].mobility.initialY 150m
param **.constraintAreaMaxX 500m
param **.constraintAreaMaxY 500m
param **.constraintAreaMaxZ 0m
param **.constraintAreaMinX 0m
param **.constraintAreaMinY 0m
param **.constraintAreaMinZ 0m
param **.number 4
param **.networkConfiguratorModule "\"networkConfigurator\""
param **.networkConfigurator.config "xmldoc(\"hierarchical99.xml\")"
param **.host[*].hasIpv4 false
param **.host[*].hasIpv6 false
param **.host[*].hasGn true
param **.host[*].generic.typename "\"NextHopNetworkLayer\""
param **.host[*].generic.nextHop.hopLimit 4
param **.numApps 1
param **.radioMedium.pathLoss.typename "\"LogNormalShadowing\""
param **.radioMedium.pathLoss.alpha 3
param **.radioMedium.pathLoss.sigma 7
param **.host[0].app[0].typename "\"UdpSink\""
param **.host[0].app[0].localPort 7654
param **.host[1].app[0].typename "\"UdpSink\""
param **.host[1].app[0].localPort 7654
param **.host[2..3].app[0].typename "\"UdpBasicApp\""
param **.host[2..3].app[0].destPort 7654
param **.host[2..3].app[0].destAddresses "\"host[0]\""
param **.host[2..3].app[0].messageLength 100B
param **.host[2..3].app[0].startTime "uniform(0s, 10ms)"
param **.host[2..3].app[0].sendInterval 20ms
param **.host[2..3].app[0].packetName "\"CustomData\""

scalar NetworkModified.radioMedium.propagation "Arrival computation count" 20616
scalar NetworkModified.radioMedium "transmission count" 6872
scalar NetworkModified.radioMedium "signal send count" 20616
scalar NetworkModified.radioMedium "reception computation count" 20616
scalar NetworkModified.radioMedium "interference computation count" 68608
scalar NetworkModified.radioMedium "reception decision computation count" 9291
scalar NetworkModified.radioMedium "listening decision computation count" 38731
scalar NetworkModified.radioMedium "reception cache hit" 81.327778280953
attr unit %
scalar NetworkModified.radioMedium "interference cache hit" 66.666666666667
attr unit %
scalar NetworkModified.radioMedium "noise cache hit" 0
attr unit %
scalar NetworkModified.radioMedium "snir cache hit" 50
attr unit %
scalar NetworkModified.radioMedium "reception decision cache hit" 50
attr unit %
scalar NetworkModified.radioMedium "reception result cache hit" 0
attr unit %
scalar NetworkModified.host[0].lo[0].lo rcvdPkFromHl:count 0
attr interpolationmode none
attr source packetReceivedFromUpper
attr title "packets received from higher layer, count"
scalar NetworkModified.host[0].lo[0].lo rcvdPkFromHl:sum(packetBytes) 0
attr interpolationmode none
attr source packetReceivedFromUpper
attr title "packets received from higher layer, sum(packetBytes)"
scalar NetworkModified.host[0].lo[0].lo passedUpPk:count 0
attr interpolationmode none
attr source packetSentToUpper
attr title "packets passed to higher layer, count"
scalar NetworkModified.host[0].lo[0].lo passedUpPk:sum(packetBytes) 0
attr interpolationmode none
attr source packetSentToUpper
attr title "packets passed to higher layer, sum(packetBytes)"
scalar NetworkModified.host[0].wlan[0].mac.dcf.channelAccess.pendingQueue packetPopped:count 0
attr interpolationmode none
attr title "packet popped, count"
scalar NetworkModified.host[0].wlan[0].mac.dcf.channelAccess.pendingQueue packetPopped:sum(packetBytes) 0
attr interpolationmode none
attr title "packet popped, sum(packetBytes)"
statistic NetworkModified.host[0].wlan[0].mac.dcf.channelAccess.pendingQueue queueingTime:histogram
field count 0
field mean -nan
field stddev -nan
field min -nan
field max -nan
field sum 0
field sqrsum 0
attr interpolationmode none
attr source queueingTime(packetPopped)
attr title "queueing times, histogram"
attr unit s
bin	-inf	0
bin	0	0
bin	1	0
scalar NetworkModified.host[0].wlan[0].mac.dcf.channelAccess.pendingQueue queueLength:max -nan
attr interpolationmode sample-hold
attr source "count(packetPushed) - count(packetPopped) - count(packetRemoved) - count(packetDropped)"
attr title "queue length, max"
scalar NetworkModified.host[0].wlan[0].mac.dcf.channelAccess.pendingQueue queueLength:timeavg -nan
attr interpolationmode sample-hold
attr source "count(packetPushed) - count(packetPopped) - count(packetRemoved) - count(packetDropped)"
attr title "queue length, timeavg"
scalar NetworkModified.host[0].wlan[0].mac.dcf.channelAccess.pendingQueue packetPushed:count 0
attr interpolationmode none
attr title "packet pushed, count"
scalar NetworkModified.host[0].wlan[0].mac.dcf.channelAccess.pendingQueue packetPushed:sum(packetBytes) 0
attr interpolationmode none
attr title "packet pushed, sum(packetBytes)"
scalar NetworkModified.host[0].wlan[0].mac.dcf.channelAccess.pendingQueue packetDropQueueOverflow:count 0
attr interpolationmode none
attr source packetDropReasonIsQueueOverflow(packetDropped)
attr title "packet drops: queue overflow, count"
scalar NetworkModified.host[0].wlan[0].mac.dcf.channelAccess.pendingQueue packetDropQueueOverflow:sum(packetBytes) 0
attr interpolationmode none
attr source packetDropReasonIsQueueOverflow(packetDropped)
attr title "packet drops: queue overflow, sum(packetBytes)"
scalar NetworkModified.host[0].wlan[0].mac.dcf.channelAccess.pendingQueue packetRemoved:count 0
attr interpolationmode none
attr title "packets removed, count"
scalar NetworkModified.host[0].wlan[0].mac.dcf.channelAccess.pendingQueue packetRemoved:sum(packetBytes) 0
attr interpolationmode none
attr title "packets removed, sum(packetBytes)"
statistic NetworkModified.host[0].wlan[0].mac.dcf.channelAccess.inProgressFrames queueingTime:histogram
field count 0
field mean -nan
field stddev -nan
field min -nan
field max -nan
field sum 0
field sqrsum 0
attr interpolationmode none
attr source queueingTime(packetDequeued)
attr title "queueing times, histogram"
bin	-inf	0
bin	0	0
bin	1	0
scalar NetworkModified.host[0].wlan[0].mac.dcf.channelAccess.inProgressFrames queueLength:max -nan
attr interpolationmode sample-hold
attr source "count(packetEnqueued) - count(packetDequeued)"
attr title "queue length, max"
scalar NetworkModified.host[0].wlan[0].mac.dcf.channelAccess.inProgressFrames queueLength:timeavg -nan
attr interpolationmode sample-hold
attr source "count(packetEnqueued) - count(packetDequeued)"
attr title "queue length, timeavg"
scalar NetworkModified.host[0].wlan[0].mac.dcf.channelAccess.contention channelAccessGranted:count 0
attr title "channel access granted, count"
scalar NetworkModified.host[0].wlan[0].mac.dcf.channelAccess.contention stateChanged:count 10228
attr interpolationmode none
attr title "contention state changed, count"
scalar NetworkModified.host[0].wlan[0].mac.dcf.channelAccess channelOwnershipChanged:count 0
attr interpolationmode sample-hold
attr title "channel ownership, count"
scalar NetworkModified.host[0].wlan[0].mac.dcf.originatorMacDataService packetAggregated:count 0
attr title "packets aggregated, count"
scalar NetworkModified.host[0].wlan[0].mac.dcf.originatorMacDataService packetFragmented:count 0
attr title "packets fragmented, count"
scalar NetworkModified.host[0].wlan[0].mac.dcf.recipientMacDataService packetDeaggregated:count 0
attr title "packets deaggregated, count"
scalar NetworkModified.host[0].wlan[0].mac.dcf.recipientMacDataService packetDefragmented:count 802
attr title "packets defragmented, count"
scalar NetworkModified.host[0].wlan[0].mac.dcf.recipientMacDataService packetDropDuplicateDetected:count 475
attr interpolationmode none
attr source packetDropReasonIsDuplicateDetected(packetDropped)
attr title "packet drops: duplicate detected, count"
scalar NetworkModified.host[0].wlan[0].mac.dcf.recipientMacDataService packetDropDuplicateDetected:sum(packetBytes) 73150
attr interpolationmode none
attr source packetDropReasonIsDuplicateDetected(packetDropped)
attr title "packet drops: duplicate detected, sum(packetBytes)"
scalar NetworkModified.host[0].wlan[0].mac.dcf.recoveryProcedure retryLimitReached:count 0
attr title "retry limit reached, count"
scalar NetworkModified.host[0].wlan[0].mac.dcf frameSequenceFinished:count 0
attr title "finished frame sequences, count"
statistic NetworkModified.host[0].wlan[0].mac.dcf frameSequenceDuration:histogram
field count 0
field mean -nan
field stddev -nan
field min -nan
field max -nan
field sum 0
field sqrsum 0
attr source frameSequenceDuration(frameSequenceFinished)
attr title "frame sequence durations, histogram"
bin	-inf	0
bin	0	0
bin	1	0
statistic NetworkModified.host[0].wlan[0].mac.dcf frameSequenceNumPackets:histogram
field count 0
field mean -nan
field stddev -nan
field min -nan
field max -nan
field sum 0
field sqrsum 0
attr source frameSequenceNumPackets(frameSequenceFinished)
attr title "frame sequences: number of packets, histogram"
bin	-inf	0
bin	0	0
bin	1	0
scalar NetworkModified.host[0].wlan[0].mac.dcf packetReceivedFromPeer:count 1277
attr interpolationmode none
attr title "packets received, count"
scalar NetworkModified.host[0].wlan[0].mac.dcf packetReceivedFromPeer:sum(packetBytes) 196658
attr interpolationmode none
attr title "packets received, sum(packetBytes)"
scalar NetworkModified.host[0].wlan[0].mac.dcf packetReceivedFromPeerUnicast:count 1277
attr interpolationmode none
attr source ieee80211Unicast(packetReceivedFromPeer)
attr title "packets received: unicast, count"
scalar NetworkModified.host[0].wlan[0].mac.dcf packetReceivedFromPeerUnicast:sum(packetBytes) 196658
attr interpolationmode none
attr source ieee80211Unicast(packetReceivedFromPeer)
attr title "packets received: unicast, sum(packetBytes)"
scalar NetworkModified.host[0].wlan[0].mac.dcf packetReceivedFromPeerMulticast:count 0
attr interpolationmode none
attr source ieee80211Multicast(packetReceivedFromPeer)
attr title "packets received: multicast, count"
scalar NetworkModified.host[0].wlan[0].mac.dcf packetReceivedFromPeerMulticast:sum(packetBytes) 0
attr interpolationmode none
attr source ieee80211Multicast(packetReceivedFromPeer)
attr title "packets received: multicast, sum(packetBytes)"
scalar NetworkModified.host[0].wlan[0].mac.dcf packetReceivedFromPeerBroadcast:count 0
attr interpolationmode none
attr source ieee80211Broadcast(packetReceivedFromPeer)
attr title "packets received: broadcast, count"
scalar NetworkModified.host[0].wlan[0].mac.dcf packetReceivedFromPeerBroadcast:sum(packetBytes) 0
attr interpolationmode none
attr source ieee80211Broadcast(packetReceivedFromPeer)
attr title "packets received: broadcast, sum(packetBytes)"
scalar NetworkModified.host[0].wlan[0].mac.dcf packetReceivedFromPeerWithRetry:count 993
attr interpolationmode none
attr source ieee80211Retry(packetReceivedFromPeer)
attr title "packets received: with retry, count"
scalar NetworkModified.host[0].wlan[0].mac.dcf packetReceivedFromPeerWithRetry:sum(packetBytes) 152922
attr interpolationmode none
attr source ieee80211Retry(packetReceivedFromPeer)
attr title "packets received: with retry, sum(packetBytes)"
scalar NetworkModified.host[0].wlan[0].mac.dcf packetReceivedFromPeerWithoutRetry:count 284
attr interpolationmode none
attr source ieee80211NotRetry(packetReceivedFromPeer)
attr title "packets received: without retry, count"
scalar NetworkModified.host[0].wlan[0].mac.dcf packetReceivedFromPeerWithoutRetry:sum(packetBytes) 43736
attr interpolationmode none
attr source ieee80211NotRetry(packetReceivedFromPeer)
attr title "packets received: without retry, sum(packetBytes)"
scalar NetworkModified.host[0].wlan[0].mac.dcf packetSentToPeer:count 1277
attr interpolationmode none
attr title "packets sent, count"
scalar NetworkModified.host[0].wlan[0].mac.dcf packetSentToPeer:sum(packetBytes) 17878
attr interpolationmode none
attr title "packets sent, sum(packetBytes)"
scalar NetworkModified.host[0].wlan[0].mac.dcf packetSentToPeerUnicast:count 1277
attr interpolationmode none
attr source ieee80211Unicast(packetSentToPeer)
attr title "packets sent: unicast, count"
scalar NetworkModified.host[0].wlan[0].mac.dcf packetSentToPeerUnicast:sum(packetBytes) 17878
attr interpolationmode none
attr source ieee80211Unicast(packetSentToPeer)
attr title "packets sent: unicast, sum(packetBytes)"
scalar NetworkModified.host[0].wlan[0].mac.dcf packetSentToPeerMulticast:count 0
attr interpolationmode none
attr source ieee80211Multicast(packetSentToPeer)
attr title "packets sent: multicast, count"
scalar NetworkModified.host[0].wlan[0].mac.dcf packetSentToPeerMulticast:sum(packetBytes) 0
attr interpolationmode none
attr source ieee80211Multicast(packetSentToPeer)
attr title "packets sent: multicast, sum(packetBytes)"
scalar NetworkModified.host[0].wlan[0].mac.dcf packetSentToPeerBroadcast:count 0
attr interpolationmode none
attr source ieee80211Broadcast(packetSentToPeer)
attr title "packets sent: broadcast , count"
scalar NetworkModified.host[0].wlan[0].mac.dcf packetSentToPeerBroadcast:sum(packetBytes) 0
attr interpolationmode none
attr source ieee80211Broadcast(packetSentToPeer)
attr title "packets sent: broadcast , sum(packetBytes)"
scalar NetworkModified.host[0].wlan[0].mac.dcf packetSentToPeerWithRetry:count 0
attr interpolationmode none
attr source ieee80211Retry(packetSentToPeer)
attr title "packets sent: with retry, count"
scalar NetworkModified.host[0].wlan[0].mac.dcf packetSentToPeerWithRetry:sum(packetBytes) 0
attr interpolationmode none
attr source ieee80211Retry(packetSentToPeer)
attr title "packets sent: with retry, sum(packetBytes)"
scalar NetworkModified.host[0].wlan[0].mac.dcf packetSentToPeerWithoutRetry:count 1277
attr interpolationmode none
attr source ieee80211NotRetry(packetSentToPeer)
attr title "packets sent: without retry, count"
scalar NetworkModified.host[0].wlan[0].mac.dcf packetSentToPeerWithoutRetry:sum(packetBytes) 17878
attr interpolationmode none
attr source ieee80211NotRetry(packetSentToPeer)
attr title "packets sent: without retry, sum(packetBytes)"
scalar NetworkModified.host[0].wlan[0].mac.dcf packetDrop:count 475
attr interpolationmode none
attr source packetDropped
attr title "packet drops, count"
scalar NetworkModified.host[0].wlan[0].mac.dcf packetDrop:sum(packetBytes) 73150
attr interpolationmode none
attr source packetDropped
attr title "packet drops, sum(packetBytes)"
scalar NetworkModified.host[0].wlan[0].mac.dcf packetDropNotAddressedToUs:count 0
attr interpolationmode none
attr source packetDropReasonIsNotAddressedToUs(packetDropped)
attr title "packet drops: not addressed to us, count"
scalar NetworkModified.host[0].wlan[0].mac.dcf packetDropNotAddressedToUs:sum(packetBytes) 0
attr interpolationmode none
attr source packetDropReasonIsNotAddressedToUs(packetDropped)
attr title "packet drops: not addressed to us, sum(packetBytes)"
scalar NetworkModified.host[0].wlan[0].mac.dcf packetDropQueueOverflow:count 0
attr interpolationmode none
attr source packetDropReasonIsQueueOverflow(packetDropped)
attr title "packet drops: queue overflow, count"
scalar NetworkModified.host[0].wlan[0].mac.dcf packetDropQueueOverflow:sum(packetBytes) 0
attr interpolationmode none
attr source packetDropReasonIsQueueOverflow(packetDropped)
attr title "packet drops: queue overflow, sum(packetBytes)"
scalar NetworkModified.host[0].wlan[0].mac.dcf packetDropRetryLimitReached:count 0
attr interpolationmode none
attr source packetDropReasonIsRetryLimitReached(packetDropped)
attr title "packet drops: retry limit reached, count"
scalar NetworkModified.host[0].wlan[0].mac.dcf packetDropRetryLimitReached:sum(packetBytes) 0
attr interpolationmode none
attr source packetDropReasonIsRetryLimitReached(packetDropped)
attr title "packet drops: retry limit reached, sum(packetBytes)"
scalar NetworkModified.host[0].wlan[0].mac.dcf linkBroken:count 0
attr interpolationmode none
attr title "link breaks, count"
scalar NetworkModified.host[0].wlan[0].mac packetReceivedFromLower:count 1278
attr interpolationmode none
attr title "packets received from lower layer, count"
scalar NetworkModified.host[0].wlan[0].mac packetReceivedFromLower:sum(packetBytes) 196812
attr interpolationmode none
attr title "packets received from lower layer, sum(packetBytes)"
scalar NetworkModified.host[0].wlan[0].mac packetSentToLower:count 1277
attr interpolationmode none
attr title "packets sent to lower layer, count"
scalar NetworkModified.host[0].wlan[0].mac packetSentToLower:sum(packetBytes) 17878
attr interpolationmode none
attr title "packets sent to lower layer, sum(packetBytes)"
scalar NetworkModified.host[0].wlan[0].mac packetReceivedFromUpper:count 0
attr interpolationmode none
attr title "packets received from upper layer, count"
scalar NetworkModified.host[0].wlan[0].mac packetReceivedFromUpper:sum(packetBytes) 0
attr interpolationmode none
attr title "packets received from upper layer, sum(packetBytes)"
scalar NetworkModified.host[0].wlan[0].mac packetSentToUpper:count 802
attr interpolationmode none
attr title "packets sent to upper layer, count"
scalar NetworkModified.host[0].wlan[0].mac packetSentToUpper:sum(packetBytes) 101052
attr interpolationmode none
attr title "packets sent to upper layer, sum(packetBytes)"
scalar NetworkModified.host[0].wlan[0].mac packetDrop:count 476
attr interpolationmode none
attr source packetDropped
attr title "packet drops, count"
scalar NetworkModified.host[0].wlan[0].mac packetDrop:sum(packetBytes) 73304
attr interpolationmode none
attr source packetDropped
attr title "packet drops, sum(packetBytes)"
scalar NetworkModified.host[0].wlan[0].mac packetDropIncorrectlyReceived:count 1
attr interpolationmode none
attr source packetDropReasonIsIncorrectlyReceived(packetDropped)
attr title "packet drops: incorrectly received, count"
scalar NetworkModified.host[0].wlan[0].mac packetDropIncorrectlyReceived:sum(packetBytes) 154
attr interpolationmode none
attr source packetDropReasonIsIncorrectlyReceived(packetDropped)
attr title "packet drops: incorrectly received, sum(packetBytes)"
scalar NetworkModified.host[0].wlan[0].mac packetDropNotAddressedToUs:count 0
attr interpolationmode none
attr source packetDropReasonIsNotAddressedToUs(packetDropped)
attr title "packet drops: not addressed to us, count"
scalar NetworkModified.host[0].wlan[0].mac packetDropNotAddressedToUs:sum(packetBytes) 0
attr interpolationmode none
attr source packetDropReasonIsNotAddressedToUs(packetDropped)
attr title "packet drops: not addressed to us, sum(packetBytes)"
scalar NetworkModified.host[0].wlan[0].mac packetDropQueueOverflow:count 0
attr interpolationmode none
attr source packetDropReasonIsQueueOverflow(packetDropped)
attr title "packet drops: queue overflow, count"
scalar NetworkModified.host[0].wlan[0].mac packetDropQueueOverflow:sum(packetBytes) 0
attr interpolationmode none
attr source packetDropReasonIsQueueOverflow(packetDropped)
attr title "packet drops: queue overflow, sum(packetBytes)"
scalar NetworkModified.host[0].wlan[0].mac packetDropRetryLimitReached:count 0
attr interpolationmode none
attr source packetDropReasonIsRetryLimitReached(packetDropped)
attr title "packet drops: retry limit reached, count"
scalar NetworkModified.host[0].wlan[0].mac packetDropRetryLimitReached:sum(packetBytes) 0
attr interpolationmode none
attr source packetDropReasonIsRetryLimitReached(packetDropped)
attr title "packet drops: retry limit reached, sum(packetBytes)"
scalar NetworkModified.host[0].wlan[0].mac packetDropDuplicateDetected:count 475
attr interpolationmode none
attr source packetDropReasonIsDuplicateDetected(packetDropped)
attr title "packet drops: duplicate detected, count"
scalar NetworkModified.host[0].wlan[0].mac packetDropDuplicateDetected:sum(packetBytes) 73150
attr interpolationmode none
attr source packetDropReasonIsDuplicateDetected(packetDropped)
attr title "packet drops: duplicate detected, sum(packetBytes)"
scalar NetworkModified.host[0].wlan[0].mac packetDropOther:count 0
attr interpolationmode none
attr source packetDropReasonIsOther(packetDropped)
attr title "packet drops: other, count"
scalar NetworkModified.host[0].wlan[0].mac packetDropOther:sum(packetBytes) 0
attr interpolationmode none
attr source packetDropReasonIsOther(packetDropped)
attr title "packet drops: other, sum(packetBytes)"
scalar NetworkModified.host[0].wlan[0].mac linkBroken:count 0
attr interpolationmode none
attr title "link breaks, count"
statistic NetworkModified.host[0].wlan[0].radio radioChannel:histogram
field count 1
field mean 0
field stddev -nan
field min 0
field max 0
field sum 0
field sqrsum 0
attr interpolationmode sample-hold
attr source radioChannelChanged
attr title "Radio channel, histogram"
bin	-inf	0
bin	-0.5	0
bin	-0.48	0
bin	-0.46	0
bin	-0.44	0
bin	-0.42	0
bin	-0.4	0
bin	-0.38	0
bin	-0.36	0
bin	-0.34	0
bin	-0.32	0
bin	-0.3	0
bin	-0.28	0
bin	-0.26	0
bin	-0.24	0
bin	-0.22	0
bin	-0.2	0
bin	-0.18	0
bin	-0.16	0
bin	-0.14	0
bin	-0.12	0
bin	-0.1	0
bin	-0.08	0
bin	-0.06	0
bin	-0.04	0
bin	-0.02	0
bin	0	1
bin	0.02	0
bin	0.04	0
bin	0.06	0
bin	0.08	0
bin	0.1	0
bin	0.12	0
bin	0.14	0
bin	0.16	0
bin	0.18	0
bin	0.2	0
bin	0.22	0
bin	0.24	0
bin	0.26	0
bin	0.28	0
bin	0.3	0
bin	0.32	0
bin	0.34	0
bin	0.36	0
bin	0.38	0
bin	0.4	0
bin	0.42	0
bin	0.44	0
bin	0.46	0
bin	0.48	0
bin	0.5	0
scalar NetworkModified.host[0].wlan[0].radio radioMode:count 2557
attr interpolationmode sample-hold
attr source radioModeChanged
attr title "Radio mode, count"
scalar NetworkModified.host[0].wlan[0].radio receptionState:count 5114
attr interpolationmode sample-hold
attr source receptionStateChanged
attr title "Radio reception state, count"
scalar NetworkModified.host[0].wlan[0].radio transmissionState:count 5108
attr interpolationmode sample-hold
attr source transmissionStateChanged
attr title "Radio transmission state, count"
statistic NetworkModified.host[0].wlan[0].radio minSnir:histogram
field count 1278
field mean 1660.7101883044
field stddev 4363.7611154386
field min 1.9799134840906
field max 118534.7381218
field sum 2122387.620653
field sqrsum 27841829684.878
attr source minimumSnir(packetSentToUpper)
attr title "Min SNIR, histogram"
bin	-inf	0
bin	0	1046
bin	2000	133
bin	4000	44
bin	6000	20
bin	8000	14
bin	10000	0
bin	12000	5
bin	14000	7
bin	16000	0
bin	18000	2
bin	20000	1
bin	22000	1
bin	24000	1
bin	26000	0
bin	28000	1
bin	30000	1
bin	32000	0
bin	34000	0
bin	36000	0
bin	38000	0
bin	40000	0
bin	42000	0
bin	44000	0
bin	46000	0
bin	48000	1
bin	50000	0
bin	52000	0
bin	54000	0
bin	56000	0
bin	58000	0
bin	60000	0
bin	62000	0
bin	64000	0
bin	66000	0
bin	68000	0
bin	70000	0
bin	72000	0
bin	74000	0
bin	76000	0
bin	78000	0
bin	80000	0
bin	82000	0
bin	84000	0
bin	86000	0
bin	88000	0
bin	90000	0
bin	92000	0
bin	94000	0
bin	96000	0
bin	98000	0
bin	100000	0
bin	102000	0
bin	104000	0
bin	106000	0
bin	108000	0
bin	110000	0
bin	112000	0
bin	114000	0
bin	116000	0
bin	118000	1
bin	120000	0
statistic NetworkModified.host[0].wlan[0].radio packetErrorRate:histogram
field count 1278
field mean 0.00084363404075064
field stddev 0.028056245261925
field min 0
field max 1
field sum 1.0781643040793
field sqrsum 1.0061038271064
attr source packetErrorRate(packetSentToUpper)
attr title "Packet error rate, histogram"
bin	-inf	0
bin	-0.5	0
bin	-0.48	0
bin	-0.46	0
bin	-0.44	0
bin	-0.42	0
bin	-0.4	0
bin	-0.38	0
bin	-0.36	0
bin	-0.34	0
bin	-0.32	0
bin	-0.3	0
bin	-0.28	0
bin	-0.26	0
bin	-0.24	0
bin	-0.22	0
bin	-0.2	0
bin	-0.18	0
bin	-0.16	0
bin	-0.14	0
bin	-0.12	0
bin	-0.1	0
bin	-0.08	0
bin	-0.06	0
bin	-0.04	0
bin	-0.02	0
bin	0	1276
bin	0.02	0
bin	0.04	0
bin	0.06	1
bin	0.08	0
bin	0.1	0
bin	0.12	0
bin	0.14	0
bin	0.16	0
bin	0.18	0
bin	0.2	0
bin	0.22	0
bin	0.24	0
bin	0.26	0
bin	0.28	0
bin	0.3	0
bin	0.32	0
bin	0.34	0
bin	0.36	0
bin	0.38	0
bin	0.4	0
bin	0.42	0
bin	0.44	0
bin	0.46	0
bin	0.48	0
bin	0.5	0
bin	0.52	0
bin	0.54	0
bin	0.56	0
bin	0.58	0
bin	0.6	0
bin	0.62	0
bin	0.64	0
bin	0.66	0
bin	0.68	0
bin	0.7	0
bin	0.72	0
bin	0.74	0
bin	0.76	0
bin	0.78	0
bin	0.8	0
bin	0.82	0
bin	0.84	0
bin	0.86	0
bin	0.88	0
bin	0.9	0
bin	0.92	0
bin	0.94	0
bin	0.96	0
bin	0.98	0
bin	1	1
bin	1.02	0
statistic NetworkModified.host[0].wlan[0].radio bitErrorRate:histogram
field count 0
field mean -nan
field stddev -nan
field min -nan
field max -nan
field sum 0
field sqrsum 0
attr source bitErrorRate(packetSentToUpper)
attr title "Bit error rate, histogram"
bin	-inf	0
bin	0	0
bin	1	0
statistic NetworkModified.host[0].wlan[0].radio symbolErrorRate:histogram
field count 0
field mean -nan
field stddev -nan
field min -nan
field max -nan
field sum 0
field sqrsum 0
attr source symbolErrorRate(packetSentToUpper)
attr title "Symbol error rate, histogram"
bin	-inf	0
bin	0	0
bin	1	0
scalar NetworkModified.host[0].udp packetReceived:count 802
attr interpolationmode none
attr source packetReceived
attr title "packets received, count"
scalar NetworkModified.host[0].udp packetReceived:sum(packetBytes) 86616
attr interpolationmode none
attr source packetReceived
attr title "packets received, sum(packetBytes)"
scalar NetworkModified.host[0].udp packetSent:count 0
attr interpolationmode none
attr source packetSent
attr title "packets sent, count"
scalar NetworkModified.host[0].udp packetSent:sum(packetBytes) 0
attr interpolationmode none
attr source packetSent
attr title "packets sent, sum(packetBytes)"
scalar NetworkModified.host[0].udp passedUpPk:count 802
attr interpolationmode none
attr source packetSentToUpper
attr title "packets passed up, count"
scalar NetworkModified.host[0].udp droppedPkWrongPort:count 0
attr interpolationmode none
attr source packetDropReasonIsNoPortFound(packetDropped)
attr title "packets dropped (wrong port), count"
scalar NetworkModified.host[0].udp droppedPkBadChecksum:count 0
attr interpolationmode none
attr source packetDropReasonIsIncorrectlyReceived(packetDropped)
attr title "packets dropped (checksum error), count"
scalar NetworkModified.host[0].app[0] packetReceived:count 802
attr interpolationmode none
attr source packetReceived
attr title "packets received, count"
scalar NetworkModified.host[0].app[0] packetReceived:sum(packetBytes) 80200
attr interpolationmode none
attr source packetReceived
attr title "packets received, sum(packetBytes)"
statistic NetworkModified.host[0].app[0] endToEndDelay:histogram
field count 802
field mean 1.8493128350185
field stddev 2.3525524993085
field min 8.2226107e-05
field max 7.090072091626
field sum 1483.1488936849
field sqrsum 7175.9433981989
attr interpolationmode none
attr source dataAge(packetReceived)
attr title "end-to-end delay, histogram"
attr unit s
bin	-inf	0
bin	0	274
bin	0.08	38
bin	0.16	32
bin	0.24	29
bin	0.32	29
bin	0.4	20
bin	0.48	3
bin	0.56	6
bin	0.64	10
bin	0.72	16
bin	0.8	7
bin	0.88	6
bin	0.96	11
bin	1.04	15
bin	1.12	7
bin	1.2	4
bin	1.28	4
bin	1.36	0
bin	1.44	5
bin	1.52	3
bin	1.6	6
bin	1.68	4
bin	1.76	7
bin	1.84	2
bin	1.92	2
bin	2	4
bin	2.08	1
bin	2.16	3
bin	2.24	1
bin	2.32	2
bin	2.4	3
bin	2.48	1
bin	2.56	1
bin	2.64	4
bin	2.72	0
bin	2.8	3
bin	2.88	1
bin	2.96	5
bin	3.04	3
bin	3.12	4
bin	3.2	2
bin	3.28	1
bin	3.36	3
bin	3.44	6
bin	3.52	6
bin	3.6	1
bin	3.68	2
bin	3.76	1
bin	3.84	3
bin	3.92	2
bin	4	8
bin	4.08	1
bin	4.16	2
bin	4.24	1
bin	4.32	2
bin	4.4	2
bin	4.48	5
bin	4.56	4
bin	4.64	5
bin	4.72	4
bin	4.8	7
bin	4.88	5
bin	4.96	3
bin	5.04	10
bin	5.12	5
bin	5.2	1
bin	5.28	3
bin	5.36	6
bin	5.44	3
bin	5.52	3
bin	5.6	7
bin	5.68	20
bin	5.76	16
bin	5.84	13
bin	5.92	7
bin	6	4
bin	6.08	6
bin	6.16	1
bin	6.24	9
bin	6.32	4
bin	6.4	4
bin	6.48	4
bin	6.56	1
bin	6.64	4
bin	6.72	4
bin	6.8	2
bin	6.88	3
bin	6.96	5
bin	7.04	5
bin	7.12	0
scalar NetworkModified.host[1].lo[0].lo rcvdPkFromHl:count 0
attr interpolationmode none
attr source packetReceivedFromUpper
attr title "packets received from higher layer, count"
scalar NetworkModified.host[1].lo[0].lo rcvdPkFromHl:sum(packetBytes) 0
attr interpolationmode none
attr source packetReceivedFromUpper
attr title "packets received from higher layer, sum(packetBytes)"
scalar NetworkModified.host[1].lo[0].lo passedUpPk:count 0
attr interpolationmode none
attr source packetSentToUpper
attr title "packets passed to higher layer, count"
scalar NetworkModified.host[1].lo[0].lo passedUpPk:sum(packetBytes) 0
attr interpolationmode none
attr source packetSentToUpper
attr title "packets passed to higher layer, sum(packetBytes)"
scalar NetworkModified.host[1].wlan[0].mac.dcf.channelAccess.pendingQueue packetPopped:count 0
attr interpolationmode none
attr title "packet popped, count"
scalar NetworkModified.host[1].wlan[0].mac.dcf.channelAccess.pendingQueue packetPopped:sum(packetBytes) 0
attr interpolationmode none
attr title "packet popped, sum(packetBytes)"
statistic NetworkModified.host[1].wlan[0].mac.dcf.channelAccess.pendingQueue queueingTime:histogram
field count 0
field mean -nan
field stddev -nan
field min -nan
field max -nan
field sum 0
field sqrsum 0
attr interpolationmode none
attr source queueingTime(packetPopped)
attr title "queueing times, histogram"
attr unit s
bin	-inf	0
bin	0	0
bin	1	0
scalar NetworkModified.host[1].wlan[0].mac.dcf.channelAccess.pendingQueue queueLength:max -nan
attr interpolationmode sample-hold
attr source "count(packetPushed) - count(packetPopped) - count(packetRemoved) - count(packetDropped)"
attr title "queue length, max"
scalar NetworkModified.host[1].wlan[0].mac.dcf.channelAccess.pendingQueue queueLength:timeavg -nan
attr interpolationmode sample-hold
attr source "count(packetPushed) - count(packetPopped) - count(packetRemoved) - count(packetDropped)"
attr title "queue length, timeavg"
scalar NetworkModified.host[1].wlan[0].mac.dcf.channelAccess.pendingQueue packetPushed:count 0
attr interpolationmode none
attr title "packet pushed, count"
scalar NetworkModified.host[1].wlan[0].mac.dcf.channelAccess.pendingQueue packetPushed:sum(packetBytes) 0
attr interpolationmode none
attr title "packet pushed, sum(packetBytes)"
scalar NetworkModified.host[1].wlan[0].mac.dcf.channelAccess.pendingQueue packetDropQueueOverflow:count 0
attr interpolationmode none
attr source packetDropReasonIsQueueOverflow(packetDropped)
attr title "packet drops: queue overflow, count"
scalar NetworkModified.host[1].wlan[0].mac.dcf.channelAccess.pendingQueue packetDropQueueOverflow:sum(packetBytes) 0
attr interpolationmode none
attr source packetDropReasonIsQueueOverflow(packetDropped)
attr title "packet drops: queue overflow, sum(packetBytes)"
scalar NetworkModified.host[1].wlan[0].mac.dcf.channelAccess.pendingQueue packetRemoved:count 0
attr interpolationmode none
attr title "packets removed, count"
scalar NetworkModified.host[1].wlan[0].mac.dcf.channelAccess.pendingQueue packetRemoved:sum(packetBytes) 0
attr interpolationmode none
attr title "packets removed, sum(packetBytes)"
statistic NetworkModified.host[1].wlan[0].mac.dcf.channelAccess.inProgressFrames queueingTime:histogram
field count 0
field mean -nan
field stddev -nan
field min -nan
field max -nan
field sum 0
field sqrsum 0
attr interpolationmode none
attr source queueingTime(packetDequeued)
attr title "queueing times, histogram"
bin	-inf	0
bin	0	0
bin	1	0
scalar NetworkModified.host[1].wlan[0].mac.dcf.channelAccess.inProgressFrames queueLength:max -nan
attr interpolationmode sample-hold
attr source "count(packetEnqueued) - count(packetDequeued)"
attr title "queue length, max"
scalar NetworkModified.host[1].wlan[0].mac.dcf.channelAccess.inProgressFrames queueLength:timeavg -nan
attr interpolationmode sample-hold
attr source "count(packetEnqueued) - count(packetDequeued)"
attr title "queue length, timeavg"
scalar NetworkModified.host[1].wlan[0].mac.dcf.channelAccess.contention channelAccessGranted:count 0
attr title "channel access granted, count"
scalar NetworkModified.host[1].wlan[0].mac.dcf.channelAccess.contention stateChanged:count 23796
attr interpolationmode none
attr title "contention state changed, count"
scalar NetworkModified.host[1].wlan[0].mac.dcf.channelAccess channelOwnershipChanged:count 0
attr interpolationmode sample-hold
attr title "channel ownership, count"
scalar NetworkModified.host[1].wlan[0].mac.dcf.originatorMacDataService packetAggregated:count 0
attr title "packets aggregated, count"
scalar NetworkModified.host[1].wlan[0].mac.dcf.originatorMacDataService packetFragmented:count 0
attr title "packets fragmented, count"
scalar NetworkModified.host[1].wlan[0].mac.dcf.recipientMacDataService packetDeaggregated:count 0
attr title "packets deaggregated, count"
scalar NetworkModified.host[1].wlan[0].mac.dcf.recipientMacDataService packetDefragmented:count 0
attr title "packets defragmented, count"
scalar NetworkModified.host[1].wlan[0].mac.dcf.recipientMacDataService packetDropDuplicateDetected:count 0
attr interpolationmode none
attr source packetDropReasonIsDuplicateDetected(packetDropped)
attr title "packet drops: duplicate detected, count"
scalar NetworkModified.host[1].wlan[0].mac.dcf.recipientMacDataService packetDropDuplicateDetected:sum(packetBytes) 0
attr interpolationmode none
attr source packetDropReasonIsDuplicateDetected(packetDropped)
attr title "packet drops: duplicate detected, sum(packetBytes)"
scalar NetworkModified.host[1].wlan[0].mac.dcf.recoveryProcedure retryLimitReached:count 0
attr title "retry limit reached, count"
scalar NetworkModified.host[1].wlan[0].mac.dcf frameSequenceFinished:count 0
attr title "finished frame sequences, count"
statistic NetworkModified.host[1].wlan[0].mac.dcf frameSequenceDuration:histogram
field count 0
field mean -nan
field stddev -nan
field min -nan
field max -nan
field sum 0
field sqrsum 0
attr source frameSequenceDuration(frameSequenceFinished)
attr title "frame sequence durations, histogram"
bin	-inf	0
bin	0	0
bin	1	0
statistic NetworkModified.host[1].wlan[0].mac.dcf frameSequenceNumPackets:histogram
field count 0
field mean -nan
field stddev -nan
field min -nan
field max -nan
field sum 0
field sqrsum 0
attr source frameSequenceNumPackets(frameSequenceFinished)
attr title "frame sequences: number of packets, histogram"
bin	-inf	0
bin	0	0
bin	1	0
scalar NetworkModified.host[1].wlan[0].mac.dcf packetReceivedFromPeer:count 0
attr interpolationmode none
attr title "packets received, count"
scalar NetworkModified.host[1].wlan[0].mac.dcf packetReceivedFromPeer:sum(packetBytes) 0
attr interpolationmode none
attr title "packets received, sum(packetBytes)"
scalar NetworkModified.host[1].wlan[0].mac.dcf packetReceivedFromPeerUnicast:count 0
attr interpolationmode none
attr source ieee80211Unicast(packetReceivedFromPeer)
attr title "packets received: unicast, count"
scalar NetworkModified.host[1].wlan[0].mac.dcf packetReceivedFromPeerUnicast:sum(packetBytes) 0
attr interpolationmode none
attr source ieee80211Unicast(packetReceivedFromPeer)
attr title "packets received: unicast, sum(packetBytes)"
scalar NetworkModified.host[1].wlan[0].mac.dcf packetReceivedFromPeerMulticast:count 0
attr interpolationmode none
attr source ieee80211Multicast(packetReceivedFromPeer)
attr title "packets received: multicast, count"
scalar NetworkModified.host[1].wlan[0].mac.dcf packetReceivedFromPeerMulticast:sum(packetBytes) 0
attr interpolationmode none
attr source ieee80211Multicast(packetReceivedFromPeer)
attr title "packets received: multicast, sum(packetBytes)"
scalar NetworkModified.host[1].wlan[0].mac.dcf packetReceivedFromPeerBroadcast:count 0
attr interpolationmode none
attr source ieee80211Broadcast(packetReceivedFromPeer)
attr title "packets received: broadcast, count"
scalar NetworkModified.host[1].wlan[0].mac.dcf packetReceivedFromPeerBroadcast:sum(packetBytes) 0
attr interpolationmode none
attr source ieee80211Broadcast(packetReceivedFromPeer)
attr title "packets received: broadcast, sum(packetBytes)"
scalar NetworkModified.host[1].wlan[0].mac.dcf packetReceivedFromPeerWithRetry:count 0
attr interpolationmode none
attr source ieee80211Retry(packetReceivedFromPeer)
attr title "packets received: with retry, count"
scalar NetworkModified.host[1].wlan[0].mac.dcf packetReceivedFromPeerWithRetry:sum(packetBytes) 0
attr interpolationmode none
attr source ieee80211Retry(packetReceivedFromPeer)
attr title "packets received: with retry, sum(packetBytes)"
scalar NetworkModified.host[1].wlan[0].mac.dcf packetReceivedFromPeerWithoutRetry:count 0
attr interpolationmode none
attr source ieee80211NotRetry(packetReceivedFromPeer)
attr title "packets received: without retry, count"
scalar NetworkModified.host[1].wlan[0].mac.dcf packetReceivedFromPeerWithoutRetry:sum(packetBytes) 0
attr interpolationmode none
attr source ieee80211NotRetry(packetReceivedFromPeer)
attr title "packets received: without retry, sum(packetBytes)"
scalar NetworkModified.host[1].wlan[0].mac.dcf packetSentToPeer:count 0
attr interpolationmode none
attr title "packets sent, count"
scalar NetworkModified.host[1].wlan[0].mac.dcf packetSentToPeer:sum(packetBytes) 0
attr interpolationmode none
attr title "packets sent, sum(packetBytes)"
scalar NetworkModified.host[1].wlan[0].mac.dcf packetSentToPeerUnicast:count 0
attr interpolationmode none
attr source ieee80211Unicast(packetSentToPeer)
attr title "packets sent: unicast, count"
scalar NetworkModified.host[1].wlan[0].mac.dcf packetSentToPeerUnicast:sum(packetBytes) 0
attr interpolationmode none
attr source ieee80211Unicast(packetSentToPeer)
attr title "packets sent: unicast, sum(packetBytes)"
scalar NetworkModified.host[1].wlan[0].mac.dcf packetSentToPeerMulticast:count 0
attr interpolationmode none
attr source ieee80211Multicast(packetSentToPeer)
attr title "packets sent: multicast, count"
scalar NetworkModified.host[1].wlan[0].mac.dcf packetSentToPeerMulticast:sum(packetBytes) 0
attr interpolationmode none
attr source ieee80211Multicast(packetSentToPeer)
attr title "packets sent: multicast, sum(packetBytes)"
scalar NetworkModified.host[1].wlan[0].mac.dcf packetSentToPeerBroadcast:count 0
attr interpolationmode none
attr source ieee80211Broadcast(packetSentToPeer)
attr title "packets sent: broadcast , count"
scalar NetworkModified.host[1].wlan[0].mac.dcf packetSentToPeerBroadcast:sum(packetBytes) 0
attr interpolationmode none
attr source ieee80211Broadcast(packetSentToPeer)
attr title "packets sent: broadcast , sum(packetBytes)"
scalar NetworkModified.host[1].wlan[0].mac.dcf packetSentToPeerWithRetry:count 0
attr interpolationmode none
attr source ieee80211Retry(packetSentToPeer)
attr title "packets sent: with retry, count"
scalar NetworkModified.host[1].wlan[0].mac.dcf packetSentToPeerWithRetry:sum(packetBytes) 0
attr interpolationmode none
attr source ieee80211Retry(packetSentToPeer)
attr title "packets sent: with retry, sum(packetBytes)"
scalar NetworkModified.host[1].wlan[0].mac.dcf packetSentToPeerWithoutRetry:count 0
attr interpolationmode none
attr source ieee80211NotRetry(packetSentToPeer)
attr title "packets sent: without retry, count"
scalar NetworkModified.host[1].wlan[0].mac.dcf packetSentToPeerWithoutRetry:sum(packetBytes) 0
attr interpolationmode none
attr source ieee80211NotRetry(packetSentToPeer)
attr title "packets sent: without retry, sum(packetBytes)"
scalar NetworkModified.host[1].wlan[0].mac.dcf packetDrop:count 3333
attr interpolationmode none
attr source packetDropped
attr title "packet drops, count"
scalar NetworkModified.host[1].wlan[0].mac.dcf packetDrop:sum(packetBytes) 444542
attr interpolationmode none
attr source packetDropped
attr title "packet drops, sum(packetBytes)"
scalar NetworkModified.host[1].wlan[0].mac.dcf packetDropNotAddressedToUs:count 3333
attr interpolationmode none
attr source packetDropReasonIsNotAddressedToUs(packetDropped)
attr title "packet drops: not addressed to us, count"
scalar NetworkModified.host[1].wlan[0].mac.dcf packetDropNotAddressedToUs:sum(packetBytes) 444542
attr interpolationmode none
attr source packetDropReasonIsNotAddressedToUs(packetDropped)
attr title "packet drops: not addressed to us, sum(packetBytes)"
scalar NetworkModified.host[1].wlan[0].mac.dcf packetDropQueueOverflow:count 0
attr interpolationmode none
attr source packetDropReasonIsQueueOverflow(packetDropped)
attr title "packet drops: queue overflow, count"
scalar NetworkModified.host[1].wlan[0].mac.dcf packetDropQueueOverflow:sum(packetBytes) 0
attr interpolationmode none
attr source packetDropReasonIsQueueOverflow(packetDropped)
attr title "packet drops: queue overflow, sum(packetBytes)"
scalar NetworkModified.host[1].wlan[0].mac.dcf packetDropRetryLimitReached:count 0
attr interpolationmode none
attr source packetDropReasonIsRetryLimitReached(packetDropped)
attr title "packet drops: retry limit reached, count"
scalar NetworkModified.host[1].wlan[0].mac.dcf packetDropRetryLimitReached:sum(packetBytes) 0
attr interpolationmode none
attr source packetDropReasonIsRetryLimitReached(packetDropped)
attr title "packet drops: retry limit reached, sum(packetBytes)"
scalar NetworkModified.host[1].wlan[0].mac.dcf linkBroken:count 0
attr interpolationmode none
attr title "link breaks, count"
scalar NetworkModified.host[1].wlan[0].mac packetReceivedFromLower:count 3340
attr interpolationmode none
attr title "packets received from lower layer, count"
scalar NetworkModified.host[1].wlan[0].mac packetReceivedFromLower:sum(packetBytes) 445480
attr interpolationmode none
attr title "packets received from lower layer, sum(packetBytes)"
scalar NetworkModified.host[1].wlan[0].mac packetSentToLower:count 0
attr interpolationmode none
attr title "packets sent to lower layer, count"
scalar NetworkModified.host[1].wlan[0].mac packetSentToLower:sum(packetBytes) 0
attr interpolationmode none
attr title "packets sent to lower layer, sum(packetBytes)"
scalar NetworkModified.host[1].wlan[0].mac packetReceivedFromUpper:count 0
attr interpolationmode none
attr title "packets received from upper layer, count"
scalar NetworkModified.host[1].wlan[0].mac packetReceivedFromUpper:sum(packetBytes) 0
attr interpolationmode none
attr title "packets received from upper layer, sum(packetBytes)"
scalar NetworkModified.host[1].wlan[0].mac packetSentToUpper:count 0
attr interpolationmode none
attr title "packets sent to upper layer, count"
scalar NetworkModified.host[1].wlan[0].mac packetSentToUpper:sum(packetBytes) 0
attr interpolationmode none
attr title "packets sent to upper layer, sum(packetBytes)"
scalar NetworkModified.host[1].wlan[0].mac packetDrop:count 3340
attr interpolationmode none
attr source packetDropped
attr title "packet drops, count"
scalar NetworkModified.host[1].wlan[0].mac packetDrop:sum(packetBytes) 445480
attr interpolationmode none
attr source packetDropped
attr title "packet drops, sum(packetBytes)"
scalar NetworkModified.host[1].wlan[0].mac packetDropIncorrectlyReceived:count 7
attr interpolationmode none
attr source packetDropReasonIsIncorrectlyReceived(packetDropped)
attr title "packet drops: incorrectly received, count"
scalar NetworkModified.host[1].wlan[0].mac packetDropIncorrectlyReceived:sum(packetBytes) 938
attr interpolationmode none
attr source packetDropReasonIsIncorrectlyReceived(packetDropped)
attr title "packet drops: incorrectly received, sum(packetBytes)"
scalar NetworkModified.host[1].wlan[0].mac packetDropNotAddressedToUs:count 3333
attr interpolationmode none
attr source packetDropReasonIsNotAddressedToUs(packetDropped)
attr title "packet drops: not addressed to us, count"
scalar NetworkModified.host[1].wlan[0].mac packetDropNotAddressedToUs:sum(packetBytes) 444542
attr interpolationmode none
attr source packetDropReasonIsNotAddressedToUs(packetDropped)
attr title "packet drops: not addressed to us, sum(packetBytes)"
scalar NetworkModified.host[1].wlan[0].mac packetDropQueueOverflow:count 0
attr interpolationmode none
attr source packetDropReasonIsQueueOverflow(packetDropped)
attr title "packet drops: queue overflow, count"
scalar NetworkModified.host[1].wlan[0].mac packetDropQueueOverflow:sum(packetBytes) 0
attr interpolationmode none
attr source packetDropReasonIsQueueOverflow(packetDropped)
attr title "packet drops: queue overflow, sum(packetBytes)"
scalar NetworkModified.host[1].wlan[0].mac packetDropRetryLimitReached:count 0
attr interpolationmode none
attr source packetDropReasonIsRetryLimitReached(packetDropped)
attr title "packet drops: retry limit reached, count"
scalar NetworkModified.host[1].wlan[0].mac packetDropRetryLimitReached:sum(packetBytes) 0
attr interpolationmode none
attr source packetDropReasonIsRetryLimitReached(packetDropped)
attr title "packet drops: retry limit reached, sum(packetBytes)"
scalar NetworkModified.host[1].wlan[0].mac packetDropDuplicateDetected:count 0
attr interpolationmode none
attr source packetDropReasonIsDuplicateDetected(packetDropped)
attr title "packet drops: duplicate detected, count"
scalar NetworkModified.host[1].wlan[0].mac packetDropDuplicateDetected:sum(packetBytes) 0
attr interpolationmode none
attr source packetDropReasonIsDuplicateDetected(packetDropped)
attr title "packet drops: duplicate detected, sum(packetBytes)"
scalar NetworkModified.host[1].wlan[0].mac packetDropOther:count 0
attr interpolationmode none
attr source packetDropReasonIsOther(packetDropped)
attr title "packet drops: other, count"
scalar NetworkModified.host[1].wlan[0].mac packetDropOther:sum(packetBytes) 0
attr interpolationmode none
attr source packetDropReasonIsOther(packetDropped)
attr title "packet drops: other, sum(packetBytes)"
scalar NetworkModified.host[1].wlan[0].mac linkBroken:count 0
attr interpolationmode none
attr title "link breaks, count"
statistic NetworkModified.host[1].wlan[0].radio radioChannel:histogram
field count 1
field mean 0
field stddev -nan
field min 0
field max 0
field sum 0
field sqrsum 0
attr interpolationmode sample-hold
attr source radioChannelChanged
attr title "Radio channel, histogram"
bin	-inf	0
bin	-0.5	0
bin	-0.48	0
bin	-0.46	0
bin	-0.44	0
bin	-0.42	0
bin	-0.4	0
bin	-0.38	0
bin	-0.36	0
bin	-0.34	0
bin	-0.32	0
bin	-0.3	0
bin	-0.28	0
bin	-0.26	0
bin	-0.24	0
bin	-0.22	0
bin	-0.2	0
bin	-0.18	0
bin	-0.16	0
bin	-0.14	0
bin	-0.12	0
bin	-0.1	0
bin	-0.08	0
bin	-0.06	0
bin	-0.04	0
bin	-0.02	0
bin	0	1
bin	0.02	0
bin	0.04	0
bin	0.06	0
bin	0.08	0
bin	0.1	0
bin	0.12	0
bin	0.14	0
bin	0.16	0
bin	0.18	0
bin	0.2	0
bin	0.22	0
bin	0.24	0
bin	0.26	0
bin	0.28	0
bin	0.3	0
bin	0.32	0
bin	0.34	0
bin	0.36	0
bin	0.38	0
bin	0.4	0
bin	0.42	0
bin	0.44	0
bin	0.46	0
bin	0.48	0
bin	0.5	0
scalar NetworkModified.host[1].wlan[0].radio radioMode:count 3
attr interpolationmode sample-hold
attr source radioModeChanged
attr title "Radio mode, count"
scalar NetworkModified.host[1].wlan[0].radio receptionState:count 6694
attr interpolationmode sample-hold
attr source receptionStateChanged
attr title "Radio reception state, count"
scalar NetworkModified.host[1].wlan[0].radio transmissionState:count 0
attr interpolationmode sample-hold
attr source transmissionStateChanged
attr title "Radio transmission state, count"
statistic NetworkModified.host[1].wlan[0].radio minSnir:histogram
field count 3340
field mean 4992.8389300049
field stddev 25848.592889055
field min 0.50572756567665
field max 1254903.9589204
field sum 16676082.026216
field sqrsum 2314213021295.3
attr source minimumSnir(packetSentToUpper)
attr title "Min SNIR, histogram"
bin	-inf	0
bin	0	3201
bin	21000	80
bin	42000	21
bin	63000	14
bin	84000	6
bin	105000	5
bin	126000	4
bin	147000	5
bin	168000	0
bin	189000	1
bin	210000	1
bin	231000	0
bin	252000	0
bin	273000	1
bin	294000	0
bin	315000	0
bin	336000	0
bin	357000	0
bin	378000	0
bin	399000	0
bin	420000	0
bin	441000	0
bin	462000	0
bin	483000	0
bin	504000	0
bin	525000	0
bin	546000	0
bin	567000	0
bin	588000	0
bin	609000	0
bin	630000	0
bin	651000	0
bin	672000	0
bin	693000	0
bin	714000	0
bin	735000	0
bin	756000	0
bin	777000	0
bin	798000	0
bin	819000	0
bin	840000	0
bin	861000	0
bin	882000	0
bin	903000	0
bin	924000	0
bin	945000	0
bin	966000	0
bin	987000	0
bin	1008000	0
bin	1029000	0
bin	1050000	0
bin	1071000	0
bin	1092000	0
bin	1113000	0
bin	1134000	0
bin	1155000	0
bin	1176000	0
bin	1197000	0
bin	1218000	0
bin	1239000	1
bin	1260000	0
statistic NetworkModified.host[1].wlan[0].radio packetErrorRate:histogram
field count 3340
field mean 0.0019841719011679
field stddev 0.043403646690501
field min 0
field max 1
field sum 6.6271341499009
field sqrsum 6.3034131605726
attr source packetErrorRate(packetSentToUpper)
attr title "Packet error rate, histogram"
bin	-inf	0
bin	0	3332
bin	0.018	0
bin	0.036	0
bin	0.054	0
bin	0.072	1
bin	0.09	0
bin	0.108	0
bin	0.126	0
bin	0.144	0
bin	0.162	0
bin	0.18	0
bin	0.198	0
bin	0.216	0
bin	0.234	0
bin	0.252	0
bin	0.27	0
bin	0.288	0
bin	0.306	0
bin	0.324	0
bin	0.342	0
bin	0.36	0
bin	0.378	0
bin	0.396	0
bin	0.414	0
bin	0.432	0
bin	0.45	0
bin	0.468	0
bin	0.486	0
bin	0.504	0
bin	0.522	0
bin	0.54	1
bin	0.558	0
bin	0.576	0
bin	0.594	0
bin	0.612	0
bin	0.63	0
bin	0.648	0
bin	0.666	0
bin	0.684	0
bin	0.702	0
bin	0.72	0
bin	0.738	0
bin	0.756	0
bin	0.774	0
bin	0.792	0
bin	0.81	0
bin	0.828	0
bin	0.846	0
bin	0.864	0
bin	0.882	0
bin	0.9	0
bin	0.918	0
bin	0.936	0
bin	0.954	0
bin	0.972	0
bin	0.99	6
bin	1.008	0
statistic NetworkModified.host[1].wlan[0].radio bitErrorRate:histogram
field count 0
field mean -nan
field stddev -nan
field min -nan
field max -nan
field sum 0
field sqrsum 0
attr source bitErrorRate(packetSentToUpper)
attr title "Bit error rate, histogram"
bin	-inf	0
bin	0	0
bin	1	0
statistic NetworkModified.host[1].wlan[0].radio symbolErrorRate:histogram
field count 0
field mean -nan
field stddev -nan
field min -nan
field max -nan
field sum 0
field sqrsum 0
attr source symbolErrorRate(packetSentToUpper)
attr title "Symbol error rate, histogram"
bin	-inf	0
bin	0	0
bin	1	0
scalar NetworkModified.host[1].udp packetReceived:count 0
attr interpolationmode none
attr source packetReceived
attr title "packets received, count"
scalar NetworkModified.host[1].udp packetReceived:sum(packetBytes) 0
attr interpolationmode none
attr source packetReceived
attr title "packets received, sum(packetBytes)"
scalar NetworkModified.host[1].udp packetSent:count 0
attr interpolationmode none
attr source packetSent
attr title "packets sent, count"
scalar NetworkModified.host[1].udp packetSent:sum(packetBytes) 0
attr interpolationmode none
attr source packetSent
attr title "packets sent, sum(packetBytes)"
scalar NetworkModified.host[1].udp passedUpPk:count 0
attr interpolationmode none
attr source packetSentToUpper
attr title "packets passed up, count"
scalar NetworkModified.host[1].udp droppedPkWrongPort:count 0
attr interpolationmode none
attr source packetDropReasonIsNoPortFound(packetDropped)
attr title "packets dropped (wrong port), count"
scalar NetworkModified.host[1].udp droppedPkBadChecksum:count 0
attr interpolationmode none
attr source packetDropReasonIsIncorrectlyReceived(packetDropped)
attr title "packets dropped (checksum error), count"
scalar NetworkModified.host[1].app[0] packetReceived:count 0
attr interpolationmode none
attr source packetReceived
attr title "packets received, count"
scalar NetworkModified.host[1].app[0] packetReceived:sum(packetBytes) 0
attr interpolationmode none
attr source packetReceived
attr title "packets received, sum(packetBytes)"
statistic NetworkModified.host[1].app[0] endToEndDelay:histogram
field count 0
field mean -nan
field stddev -nan
field min -nan
field max -nan
field sum 0
field sqrsum 0
attr interpolationmode none
attr source dataAge(packetReceived)
attr title "end-to-end delay, histogram"
attr unit s
bin	-inf	0
bin	0	0
bin	1	0
scalar NetworkModified.host[2].lo[0].lo rcvdPkFromHl:count 0
attr interpolationmode none
attr source packetReceivedFromUpper
attr title "packets received from higher layer, count"
scalar NetworkModified.host[2].lo[0].lo rcvdPkFromHl:sum(packetBytes) 0
attr interpolationmode none
attr source packetReceivedFromUpper
attr title "packets received from higher layer, sum(packetBytes)"
scalar NetworkModified.host[2].lo[0].lo passedUpPk:count 0
attr interpolationmode none
attr source packetSentToUpper
attr title "packets passed to higher layer, count"
scalar NetworkModified.host[2].lo[0].lo passedUpPk:sum(packetBytes) 0
attr interpolationmode none
attr source packetSentToUpper
attr title "packets passed to higher layer, sum(packetBytes)"
scalar NetworkModified.host[2].wlan[0].mac.dcf.channelAccess.pendingQueue packetPopped:count 536
attr interpolationmode none
attr title "packet popped, count"
scalar NetworkModified.host[2].wlan[0].mac.dcf.channelAccess.pendingQueue packetPopped:sum(packetBytes) 82544
attr interpolationmode none
attr title "packet popped, sum(packetBytes)"
statistic NetworkModified.host[2].wlan[0].mac.dcf.channelAccess.pendingQueue queueingTime:histogram
field count 536
field mean 2.4089205238374
field stddev 2.3933454570181
field min 0
field max 7.066350720312
field sum 1291.1814007768
field sqrsum 6174.8882013249
attr interpolationmode none
attr source queueingTime(packetPopped)
attr title "queueing times, histogram"
attr unit s
bin	-inf	0
bin	0	97
bin	0.1	19
bin	0.2	33
bin	0.3	44
bin	0.4	9
bin	0.5	3
bin	0.6	11
bin	0.7	19
bin	0.8	3
bin	0.9	6
bin	1	22
bin	1.1	6
bin	1.2	2
bin	1.3	1
bin	1.4	3
bin	1.5	3
bin	1.6	7
bin	1.7	8
bin	1.8	2
bin	1.9	3
bin	2	3
bin	2.1	2
bin	2.2	2
bin	2.3	1
bin	2.4	1
bin	2.5	2
bin	2.6	1
bin	2.7	2
bin	2.8	3
bin	2.9	6
bin	3	4
bin	3.1	6
bin	3.2	1
bin	3.3	2
bin	3.4	9
bin	3.5	7
bin	3.6	2
bin	3.7	2
bin	3.8	4
bin	3.9	2
bin	4	8
bin	4.1	2
bin	4.2	2
bin	4.3	2
bin	4.4	8
bin	4.5	5
bin	4.6	8
bin	4.7	5
bin	4.8	11
bin	4.9	5
bin	5	20
bin	5.1	2
bin	5.2	2
bin	5.3	6
bin	5.4	3
bin	5.5	9
bin	5.6	5
bin	5.7	3
bin	5.8	13
bin	5.9	6
bin	6	6
bin	6.1	2
bin	6.2	1
bin	6.3	3
bin	6.4	3
bin	6.5	2
bin	6.6	2
bin	6.7	4
bin	6.8	3
bin	6.9	3
bin	7	19
bin	7.1	0
bin	7.2	0
bin	7.3	0
bin	7.4	0
bin	7.5	0
bin	7.6	0
bin	7.7	0
bin	7.8	0
bin	7.9	0
bin	8	0
bin	8.1	0
bin	8.2	0
bin	8.3	0
bin	8.4	0
bin	8.5	0
bin	8.6	0
bin	8.7	0
bin	8.8	0
bin	8.9	0
scalar NetworkModified.host[2].wlan[0].mac.dcf.channelAccess.pendingQueue queueLength:max 101
attr interpolationmode sample-hold
attr source "count(packetPushed) - count(packetPopped) - count(packetRemoved) - count(packetDropped)"
attr title "queue length, max"
scalar NetworkModified.host[2].wlan[0].mac.dcf.channelAccess.pendingQueue queueLength:timeavg 74.567438019117
attr interpolationmode sample-hold
attr source "count(packetPushed) - count(packetPopped) - count(packetRemoved) - count(packetDropped)"
attr title "queue length, timeavg"
scalar NetworkModified.host[2].wlan[0].mac.dcf.channelAccess.pendingQueue packetPushed:count 1104
attr interpolationmode none
attr title "packet pushed, count"
scalar NetworkModified.host[2].wlan[0].mac.dcf.channelAccess.pendingQueue packetPushed:sum(packetBytes) 170016
attr interpolationmode none
attr title "packet pushed, sum(packetBytes)"
scalar NetworkModified.host[2].wlan[0].mac.dcf.channelAccess.pendingQueue packetDropQueueOverflow:count 468
attr interpolationmode none
attr source packetDropReasonIsQueueOverflow(packetDropped)
attr title "packet drops: queue overflow, count"
scalar NetworkModified.host[2].wlan[0].mac.dcf.channelAccess.pendingQueue packetDropQueueOverflow:sum(packetBytes) 72072
attr interpolationmode none
attr source packetDropReasonIsQueueOverflow(packetDropped)
attr title "packet drops: queue overflow, sum(packetBytes)"
scalar NetworkModified.host[2].wlan[0].mac.dcf.channelAccess.pendingQueue packetRemoved:count 0
attr interpolationmode none
attr title "packets removed, count"
scalar NetworkModified.host[2].wlan[0].mac.dcf.channelAccess.pendingQueue packetRemoved:sum(packetBytes) 0
attr interpolationmode none
attr title "packets removed, sum(packetBytes)"
statistic NetworkModified.host[2].wlan[0].mac.dcf.channelAccess.inProgressFrames queueingTime:histogram
field count 534
field mean 0.075601149256097
field stddev 0.050764134525682
field min 0.000126662676
field max 0.181732015245
field sum 40.371013702756
field sqrsum 4.4256346223194
attr interpolationmode none
attr source queueingTime(packetDequeued)
attr title "queueing times, histogram"
bin	-inf	0
bin	0	30
bin	0.002	18
bin	0.004	5
bin	0.006	2
bin	0.008	5
bin	0.01	4
bin	0.012	4
bin	0.014	3
bin	0.016	6
bin	0.018	4
bin	0.02	3
bin	0.022	10
bin	0.024	7
bin	0.026	5
bin	0.028	15
bin	0.03	11
bin	0.032	7
bin	0.034	5
bin	0.036	8
bin	0.038	12
bin	0.04	10
bin	0.042	12
bin	0.044	4
bin	0.046	5
bin	0.048	3
bin	0.05	10
bin	0.052	10
bin	0.054	7
bin	0.056	10
bin	0.058	5
bin	0.06	8
bin	0.062	8
bin	0.064	8
bin	0.066	7
bin	0.068	12
bin	0.07	3
bin	0.072	4
bin	0.074	6
bin	0.076	4
bin	0.078	3
bin	0.08	5
bin	0.082	5
bin	0.084	5
bin	0.086	4
bin	0.088	2
bin	0.09	3
bin	0.092	4
bin	0.094	7
bin	0.096	6
bin	0.098	3
bin	0.1	1
bin	0.102	4
bin	0.104	5
bin	0.106	5
bin	0.108	3
bin	0.11	4
bin	0.112	8
bin	0.114	8
bin	0.116	8
bin	0.118	7
bin	0.12	3
bin	0.122	5
bin	0.124	10
bin	0.126	4
bin	0.128	6
bin	0.13	10
bin	0.132	5
bin	0.134	3
bin	0.136	14
bin	0.138	4
bin	0.14	5
bin	0.142	2
bin	0.144	5
bin	0.146	4
bin	0.148	5
bin	0.15	3
bin	0.152	4
bin	0.154	5
bin	0.156	7
bin	0.158	4
bin	0.16	4
bin	0.162	3
bin	0.164	4
bin	0.166	1
bin	0.168	5
bin	0.17	5
bin	0.172	0
bin	0.174	0
bin	0.176	2
bin	0.178	1
bin	0.18	1
bin	0.182	0
bin	0.184	0
bin	0.186	0
bin	0.188	0
bin	0.19	0
bin	0.192	0
bin	0.194	0
bin	0.196	0
bin	0.198	0
bin	0.2	0
bin	0.202	0
scalar NetworkModified.host[2].wlan[0].mac.dcf.channelAccess.inProgressFrames queueLength:max 2
attr interpolationmode sample-hold
attr source "count(packetEnqueued) - count(packetDequeued)"
attr title "queue length, max"
scalar NetworkModified.host[2].wlan[0].mac.dcf.channelAccess.inProgressFrames queueLength:timeavg 1.8324499963426
attr interpolationmode sample-hold
attr source "count(packetEnqueued) - count(packetDequeued)"
attr title "queue length, timeavg"
scalar NetworkModified.host[2].wlan[0].mac.dcf.channelAccess.contention channelAccessGranted:count 3008
attr title "channel access granted, count"
scalar NetworkModified.host[2].wlan[0].mac.dcf.channelAccess.contention stateChanged:count 38328
attr interpolationmode none
attr title "contention state changed, count"
scalar NetworkModified.host[2].wlan[0].mac.dcf.channelAccess channelOwnershipChanged:count 6015
attr interpolationmode sample-hold
attr title "channel ownership, count"
scalar NetworkModified.host[2].wlan[0].mac.dcf.originatorMacDataService packetAggregated:count 0
attr title "packets aggregated, count"
scalar NetworkModified.host[2].wlan[0].mac.dcf.originatorMacDataService packetFragmented:count 0
attr title "packets fragmented, count"
scalar NetworkModified.host[2].wlan[0].mac.dcf.recipientMacDataService packetDeaggregated:count 0
attr title "packets deaggregated, count"
scalar NetworkModified.host[2].wlan[0].mac.dcf.recipientMacDataService packetDefragmented:count 0
attr title "packets defragmented, count"
scalar NetworkModified.host[2].wlan[0].mac.dcf.recipientMacDataService packetDropDuplicateDetected:count 0
attr interpolationmode none
attr source packetDropReasonIsDuplicateDetected(packetDropped)
attr title "packet drops: duplicate detected, count"
scalar NetworkModified.host[2].wlan[0].mac.dcf.recipientMacDataService packetDropDuplicateDetected:sum(packetBytes) 0
attr interpolationmode none
attr source packetDropReasonIsDuplicateDetected(packetDropped)
attr title "packet drops: duplicate detected, sum(packetBytes)"
scalar NetworkModified.host[2].wlan[0].mac.dcf.recoveryProcedure retryLimitReached:count 337
attr title "retry limit reached, count"
scalar NetworkModified.host[2].wlan[0].mac.dcf frameSequenceFinished:count 3007
attr title "finished frame sequences, count"
statistic NetworkModified.host[2].wlan[0].mac.dcf frameSequenceDuration:histogram
field count 3007
field mean 0.00013635091520785
field stddev 2.7173771872577e-06
field min 0.000126662618
field max 0.000182323416
field sum 0.41000720203
field sqrsum 5.5927053959765e-05
attr source frameSequenceDuration(frameSequenceFinished)
attr title "frame sequence durations, histogram"
bin	-inf	0
bin	0.000117	0
bin	0.000118	0
bin	0.000119	0
bin	0.00012	0
bin	0.000121	0
bin	0.000122	0
bin	0.000123	0
bin	0.000124	0
bin	0.000125	0
bin	0.000126	190
bin	0.000127	7
bin	0.000128	0
bin	0.000129	0
bin	0.00013	0
bin	0.000131	0
bin	0.000132	0
bin	0.000133	0
bin	0.000134	0
bin	0.000135	0
bin	0.000136	2808
bin	0.000137	0
bin	0.000138	0
bin	0.000139	0
bin	0.00014	0
bin	0.000141	0
bin	0.000142	0
bin	0.000143	0
bin	0.000144	0
bin	0.000145	0
bin	0.000146	0
bin	0.000147	0
bin	0.000148	0
bin	0.000149	0
bin	0.00015	0
bin	0.000151	0
bin	0.000152	0
bin	0.000153	0
bin	0.000154	0
bin	0.000155	0
bin	0.000156	0
bin	0.000157	0
bin	0.000158	0
bin	0.000159	0
bin	0.00016	0
bin	0.000161	0
bin	0.000162	1
bin	0.000163	0
bin	0.000164	0
bin	0.000165	0
bin	0.000166	0
bin	0.000167	0
bin	0.000168	0
bin	0.000169	0
bin	0.00017	0
bin	0.000171	0
bin	0.000172	0
bin	0.000173	0
bin	0.000174	0
bin	0.000175	0
bin	0.000176	0
bin	0.000177	0
bin	0.000178	0
bin	0.000179	0
bin	0.00018	0
bin	0.000181	0
bin	0.000182	1
bin	0.000183	0
statistic NetworkModified.host[2].wlan[0].mac.dcf frameSequenceNumPackets:histogram
field count 3007
field mean 2
field stddev 0
field min 2
field max 2
field sum 6014
field sqrsum 12028
attr source frameSequenceNumPackets(frameSequenceFinished)
attr title "frame sequences: number of packets, histogram"
bin	-inf	0
bin	1	0
bin	2	3007
bin	3	0
scalar NetworkModified.host[2].wlan[0].mac.dcf packetReceivedFromPeer:count 197
attr interpolationmode none
attr title "packets received, count"
scalar NetworkModified.host[2].wlan[0].mac.dcf packetReceivedFromPeer:sum(packetBytes) 2758
attr interpolationmode none
attr title "packets received, sum(packetBytes)"
scalar NetworkModified.host[2].wlan[0].mac.dcf packetReceivedFromPeerUnicast:count 197
attr interpolationmode none
attr source ieee80211Unicast(packetReceivedFromPeer)
attr title "packets received: unicast, count"
scalar NetworkModified.host[2].wlan[0].mac.dcf packetReceivedFromPeerUnicast:sum(packetBytes) 2758
attr interpolationmode none
attr source ieee80211Unicast(packetReceivedFromPeer)
attr title "packets received: unicast, sum(packetBytes)"
scalar NetworkModified.host[2].wlan[0].mac.dcf packetReceivedFromPeerMulticast:count 0
attr interpolationmode none
attr source ieee80211Multicast(packetReceivedFromPeer)
attr title "packets received: multicast, count"
scalar NetworkModified.host[2].wlan[0].mac.dcf packetReceivedFromPeerMulticast:sum(packetBytes) 0
attr interpolationmode none
attr source ieee80211Multicast(packetReceivedFromPeer)
attr title "packets received: multicast, sum(packetBytes)"
scalar NetworkModified.host[2].wlan[0].mac.dcf packetReceivedFromPeerBroadcast:count 0
attr interpolationmode none
attr source ieee80211Broadcast(packetReceivedFromPeer)
attr title "packets received: broadcast, count"
scalar NetworkModified.host[2].wlan[0].mac.dcf packetReceivedFromPeerBroadcast:sum(packetBytes) 0
attr interpolationmode none
attr source ieee80211Broadcast(packetReceivedFromPeer)
attr title "packets received: broadcast, sum(packetBytes)"
scalar NetworkModified.host[2].wlan[0].mac.dcf packetReceivedFromPeerWithRetry:count 0
attr interpolationmode none
attr source ieee80211Retry(packetReceivedFromPeer)
attr title "packets received: with retry, count"
scalar NetworkModified.host[2].wlan[0].mac.dcf packetReceivedFromPeerWithRetry:sum(packetBytes) 0
attr interpolationmode none
attr source ieee80211Retry(packetReceivedFromPeer)
attr title "packets received: with retry, sum(packetBytes)"
scalar NetworkModified.host[2].wlan[0].mac.dcf packetReceivedFromPeerWithoutRetry:count 197
attr interpolationmode none
attr source ieee80211NotRetry(packetReceivedFromPeer)
attr title "packets received: without retry, count"
scalar NetworkModified.host[2].wlan[0].mac.dcf packetReceivedFromPeerWithoutRetry:sum(packetBytes) 2758
attr interpolationmode none
attr source ieee80211NotRetry(packetReceivedFromPeer)
attr title "packets received: without retry, sum(packetBytes)"
scalar NetworkModified.host[2].wlan[0].mac.dcf packetSentToPeer:count 3007
attr interpolationmode none
attr title "packets sent, count"
scalar NetworkModified.host[2].wlan[0].mac.dcf packetSentToPeer:sum(packetBytes) 463078
attr interpolationmode none
attr title "packets sent, sum(packetBytes)"
scalar NetworkModified.host[2].wlan[0].mac.dcf packetSentToPeerUnicast:count 3007
attr interpolationmode none
attr source ieee80211Unicast(packetSentToPeer)
attr title "packets sent: unicast, count"
scalar NetworkModified.host[2].wlan[0].mac.dcf packetSentToPeerUnicast:sum(packetBytes) 463078
attr interpolationmode none
attr source ieee80211Unicast(packetSentToPeer)
attr title "packets sent: unicast, sum(packetBytes)"
scalar NetworkModified.host[2].wlan[0].mac.dcf packetSentToPeerMulticast:count 0
attr interpolationmode none
attr source ieee80211Multicast(packetSentToPeer)
attr title "packets sent: multicast, count"
scalar NetworkModified.host[2].wlan[0].mac.dcf packetSentToPeerMulticast:sum(packetBytes) 0
attr interpolationmode none
attr source ieee80211Multicast(packetSentToPeer)
attr title "packets sent: multicast, sum(packetBytes)"
scalar NetworkModified.host[2].wlan[0].mac.dcf packetSentToPeerBroadcast:count 0
attr interpolationmode none
attr source ieee80211Broadcast(packetSentToPeer)
attr title "packets sent: broadcast , count"
scalar NetworkModified.host[2].wlan[0].mac.dcf packetSentToPeerBroadcast:sum(packetBytes) 0
attr interpolationmode none
attr source ieee80211Broadcast(packetSentToPeer)
attr title "packets sent: broadcast , sum(packetBytes)"
scalar NetworkModified.host[2].wlan[0].mac.dcf packetSentToPeerWithRetry:count 2472
attr interpolationmode none
attr source ieee80211Retry(packetSentToPeer)
attr title "packets sent: with retry, count"
scalar NetworkModified.host[2].wlan[0].mac.dcf packetSentToPeerWithRetry:sum(packetBytes) 380688
attr interpolationmode none
attr source ieee80211Retry(packetSentToPeer)
attr title "packets sent: with retry, sum(packetBytes)"
scalar NetworkModified.host[2].wlan[0].mac.dcf packetSentToPeerWithoutRetry:count 535
attr interpolationmode none
attr source ieee80211NotRetry(packetSentToPeer)
attr title "packets sent: without retry, count"
scalar NetworkModified.host[2].wlan[0].mac.dcf packetSentToPeerWithoutRetry:sum(packetBytes) 82390
attr interpolationmode none
attr source ieee80211NotRetry(packetSentToPeer)
attr title "packets sent: without retry, sum(packetBytes)"
scalar NetworkModified.host[2].wlan[0].mac.dcf packetDrop:count 2750
attr interpolationmode none
attr source packetDropped
attr title "packet drops, count"
scalar NetworkModified.host[2].wlan[0].mac.dcf packetDrop:sum(packetBytes) 398300
attr interpolationmode none
attr source packetDropped
attr title "packet drops, sum(packetBytes)"
scalar NetworkModified.host[2].wlan[0].mac.dcf packetDropNotAddressedToUs:count 1945
attr interpolationmode none
attr source packetDropReasonIsNotAddressedToUs(packetDropped)
attr title "packet drops: not addressed to us, count"
scalar NetworkModified.host[2].wlan[0].mac.dcf packetDropNotAddressedToUs:sum(packetBytes) 274330
attr interpolationmode none
attr source packetDropReasonIsNotAddressedToUs(packetDropped)
attr title "packet drops: not addressed to us, sum(packetBytes)"
scalar NetworkModified.host[2].wlan[0].mac.dcf packetDropQueueOverflow:count 468
attr interpolationmode none
attr source packetDropReasonIsQueueOverflow(packetDropped)
attr title "packet drops: queue overflow, count"
scalar NetworkModified.host[2].wlan[0].mac.dcf packetDropQueueOverflow:sum(packetBytes) 72072
attr interpolationmode none
attr source packetDropReasonIsQueueOverflow(packetDropped)
attr title "packet drops: queue overflow, sum(packetBytes)"
scalar NetworkModified.host[2].wlan[0].mac.dcf packetDropRetryLimitReached:count 337
attr interpolationmode none
attr source packetDropReasonIsRetryLimitReached(packetDropped)
attr title "packet drops: retry limit reached, count"
scalar NetworkModified.host[2].wlan[0].mac.dcf packetDropRetryLimitReached:sum(packetBytes) 51898
attr interpolationmode none
attr source packetDropReasonIsRetryLimitReached(packetDropped)
attr title "packet drops: retry limit reached, sum(packetBytes)"
scalar NetworkModified.host[2].wlan[0].mac.dcf linkBroken:count 337
attr interpolationmode none
attr title "link breaks, count"
scalar NetworkModified.host[2].wlan[0].mac packetReceivedFromLower:count 2144
attr interpolationmode none
attr title "packets received from lower layer, count"
scalar NetworkModified.host[2].wlan[0].mac packetReceivedFromLower:sum(packetBytes) 277256
attr interpolationmode none
attr title "packets received from lower layer, sum(packetBytes)"
scalar NetworkModified.host[2].wlan[0].mac packetSentToLower:count 3008
attr interpolationmode none
attr title "packets sent to lower layer, count"
scalar NetworkModified.host[2].wlan[0].mac packetSentToLower:sum(packetBytes) 463232
attr interpolationmode none
attr title "packets sent to lower layer, sum(packetBytes)"
scalar NetworkModified.host[2].wlan[0].mac packetReceivedFromUpper:count 1104
attr interpolationmode none
attr title "packets received from upper layer, count"
scalar NetworkModified.host[2].wlan[0].mac packetReceivedFromUpper:sum(packetBytes) 139104
attr interpolationmode none
attr title "packets received from upper layer, sum(packetBytes)"
scalar NetworkModified.host[2].wlan[0].mac packetSentToUpper:count 0
attr interpolationmode none
attr title "packets sent to upper layer, count"
scalar NetworkModified.host[2].wlan[0].mac packetSentToUpper:sum(packetBytes) 0
attr interpolationmode none
attr title "packets sent to upper layer, sum(packetBytes)"
scalar NetworkModified.host[2].wlan[0].mac packetDrop:count 2750
attr interpolationmode none
attr source packetDropped
attr title "packet drops, count"
scalar NetworkModified.host[2].wlan[0].mac packetDrop:sum(packetBytes) 398300
attr interpolationmode none
attr source packetDropped
attr title "packet drops, sum(packetBytes)"
scalar NetworkModified.host[2].wlan[0].mac packetDropIncorrectlyReceived:count 0
attr interpolationmode none
attr source packetDropReasonIsIncorrectlyReceived(packetDropped)
attr title "packet drops: incorrectly received, count"
scalar NetworkModified.host[2].wlan[0].mac packetDropIncorrectlyReceived:sum(packetBytes) 0
attr interpolationmode none
attr source packetDropReasonIsIncorrectlyReceived(packetDropped)
attr title "packet drops: incorrectly received, sum(packetBytes)"
scalar NetworkModified.host[2].wlan[0].mac packetDropNotAddressedToUs:count 1945
attr interpolationmode none
attr source packetDropReasonIsNotAddressedToUs(packetDropped)
attr title "packet drops: not addressed to us, count"
scalar NetworkModified.host[2].wlan[0].mac packetDropNotAddressedToUs:sum(packetBytes) 274330
attr interpolationmode none
attr source packetDropReasonIsNotAddressedToUs(packetDropped)
attr title "packet drops: not addressed to us, sum(packetBytes)"
scalar NetworkModified.host[2].wlan[0].mac packetDropQueueOverflow:count 468
attr interpolationmode none
attr source packetDropReasonIsQueueOverflow(packetDropped)
attr title "packet drops: queue overflow, count"
scalar NetworkModified.host[2].wlan[0].mac packetDropQueueOverflow:sum(packetBytes) 72072
attr interpolationmode none
attr source packetDropReasonIsQueueOverflow(packetDropped)
attr title "packet drops: queue overflow, sum(packetBytes)"
scalar NetworkModified.host[2].wlan[0].mac packetDropRetryLimitReached:count 337
attr interpolationmode none
attr source packetDropReasonIsRetryLimitReached(packetDropped)
attr title "packet drops: retry limit reached, count"
scalar NetworkModified.host[2].wlan[0].mac packetDropRetryLimitReached:sum(packetBytes) 51898
attr interpolationmode none
attr source packetDropReasonIsRetryLimitReached(packetDropped)
attr title "packet drops: retry limit reached, sum(packetBytes)"
scalar NetworkModified.host[2].wlan[0].mac packetDropDuplicateDetected:count 0
attr interpolationmode none
attr source packetDropReasonIsDuplicateDetected(packetDropped)
attr title "packet drops: duplicate detected, count"
scalar NetworkModified.host[2].wlan[0].mac packetDropDuplicateDetected:sum(packetBytes) 0
attr interpolationmode none
attr source packetDropReasonIsDuplicateDetected(packetDropped)
attr title "packet drops: duplicate detected, sum(packetBytes)"
scalar NetworkModified.host[2].wlan[0].mac packetDropOther:count 0
attr interpolationmode none
attr source packetDropReasonIsOther(packetDropped)
attr title "packet drops: other, count"
scalar NetworkModified.host[2].wlan[0].mac packetDropOther:sum(packetBytes) 0
attr interpolationmode none
attr source packetDropReasonIsOther(packetDropped)
attr title "packet drops: other, sum(packetBytes)"
scalar NetworkModified.host[2].wlan[0].mac linkBroken:count 337
attr interpolationmode none
attr title "link breaks, count"
statistic NetworkModified.host[2].wlan[0].radio radioChannel:histogram
field count 1
field mean 0
field stddev -nan
field min 0
field max 0
field sum 0
field sqrsum 0
attr interpolationmode sample-hold
attr source radioChannelChanged
attr title "Radio channel, histogram"
bin	-inf	0
bin	-0.5	0
bin	-0.48	0
bin	-0.46	0
bin	-0.44	0
bin	-0.42	0
bin	-0.4	0
bin	-0.38	0
bin	-0.36	0
bin	-0.34	0
bin	-0.32	0
bin	-0.3	0
bin	-0.28	0
bin	-0.26	0
bin	-0.24	0
bin	-0.22	0
bin	-0.2	0
bin	-0.18	0
bin	-0.16	0
bin	-0.14	0
bin	-0.12	0
bin	-0.1	0
bin	-0.08	0
bin	-0.06	0
bin	-0.04	0
bin	-0.02	0
bin	0	1
bin	0.02	0
bin	0.04	0
bin	0.06	0
bin	0.08	0
bin	0.1	0
bin	0.12	0
bin	0.14	0
bin	0.16	0
bin	0.18	0
bin	0.2	0
bin	0.22	0
bin	0.24	0
bin	0.26	0
bin	0.28	0
bin	0.3	0
bin	0.32	0
bin	0.34	0
bin	0.36	0
bin	0.38	0
bin	0.4	0
bin	0.42	0
bin	0.44	0
bin	0.46	0
bin	0.48	0
bin	0.5	0
scalar NetworkModified.host[2].wlan[0].radio radioMode:count 6018
attr interpolationmode sample-hold
attr source radioModeChanged
attr title "Radio mode, count"
scalar NetworkModified.host[2].wlan[0].radio receptionState:count 10316
attr interpolationmode sample-hold
attr source receptionStateChanged
attr title "Radio reception state, count"
scalar NetworkModified.host[2].wlan[0].radio transmissionState:count 12030
attr interpolationmode sample-hold
attr source transmissionStateChanged
attr title "Radio transmission state, count"
statistic NetworkModified.host[2].wlan[0].radio minSnir:histogram
field count 2144
field mean 29979.494630241
field stddev 229346.03398059
field min 93.816137720842
field max 5328968.500233
field sum 64276036.487236
field sqrsum 1.1464791296825e+14
attr source minimumSnir(packetSentToUpper)
attr title "Min SNIR, histogram"
bin	-inf	0
bin	0	2036
bin	72000	51
bin	144000	12
bin	216000	12
bin	288000	4
bin	360000	5
bin	432000	4
bin	504000	0
bin	576000	3
bin	648000	2
bin	720000	1
bin	792000	2
bin	864000	0
bin	936000	1
bin	1008000	1
bin	1080000	0
bin	1152000	0
bin	1224000	1
bin	1296000	0
bin	1368000	0
bin	1440000	1
bin	1512000	0
bin	1584000	0
bin	1656000	0
bin	1728000	1
bin	1800000	1
bin	1872000	0
bin	1944000	0
bin	2016000	0
bin	2088000	1
bin	2160000	0
bin	2232000	0
bin	2304000	0
bin	2376000	0
bin	2448000	0
bin	2520000	0
bin	2592000	0
bin	2664000	0
bin	2736000	0
bin	2808000	0
bin	2880000	0
bin	2952000	0
bin	3024000	0
bin	3096000	0
bin	3168000	0
bin	3240000	0
bin	3312000	0
bin	3384000	1
bin	3456000	0
bin	3528000	0
bin	3600000	0
bin	3672000	0
bin	3744000	0
bin	3816000	0
bin	3888000	1
bin	3960000	0
bin	4032000	1
bin	4104000	0
bin	4176000	0
bin	4248000	1
bin	4320000	0
bin	4392000	0
bin	4464000	0
bin	4536000	0
bin	4608000	0
bin	4680000	0
bin	4752000	0
bin	4824000	0
bin	4896000	0
bin	4968000	0
bin	5040000	0
bin	5112000	0
bin	5184000	0
bin	5256000	0
bin	5328000	1
bin	5400000	0
statistic NetworkModified.host[2].wlan[0].radio packetErrorRate:histogram
field count 2144
field mean 0
field stddev 0
field min 0
field max 0
field sum 0
field sqrsum 0
attr source packetErrorRate(packetSentToUpper)
attr title "Packet error rate, histogram"
bin	-inf	0
bin	-0.5	0
bin	-0.48	0
bin	-0.46	0
bin	-0.44	0
bin	-0.42	0
bin	-0.4	0
bin	-0.38	0
bin	-0.36	0
bin	-0.34	0
bin	-0.32	0
bin	-0.3	0
bin	-0.28	0
bin	-0.26	0
bin	-0.24	0
bin	-0.22	0
bin	-0.2	0
bin	-0.18	0
bin	-0.16	0
bin	-0.14	0
bin	-0.12	0
bin	-0.1	0
bin	-0.08	0
bin	-0.06	0
bin	-0.04	0
bin	-0.02	0
bin	0	2144
bin	0.02	0
bin	0.04	0
bin	0.06	0
bin	0.08	0
bin	0.1	0
bin	0.12	0
bin	0.14	0
bin	0.16	0
bin	0.18	0
bin	0.2	0
bin	0.22	0
bin	0.24	0
bin	0.26	0
bin	0.28	0
bin	0.3	0
bin	0.32	0
bin	0.34	0
bin	0.36	0
bin	0.38	0
bin	0.4	0
bin	0.42	0
bin	0.44	0
bin	0.46	0
bin	0.48	0
bin	0.5	0
statistic NetworkModified.host[2].wlan[0].radio bitErrorRate:histogram
field count 0
field mean -nan
field stddev -nan
field min -nan
field max -nan
field sum 0
field sqrsum 0
attr source bitErrorRate(packetSentToUpper)
attr title "Bit error rate, histogram"
bin	-inf	0
bin	0	0
bin	1	0
statistic NetworkModified.host[2].wlan[0].radio symbolErrorRate:histogram
field count 0
field mean -nan
field stddev -nan
field min -nan
field max -nan
field sum 0
field sqrsum 0
attr source symbolErrorRate(packetSentToUpper)
attr title "Symbol error rate, histogram"
bin	-inf	0
bin	0	0
bin	1	0
scalar NetworkModified.host[2].udp packetReceived:count 0
attr interpolationmode none
attr source packetReceived
attr title "packets received, count"
scalar NetworkModified.host[2].udp packetReceived:sum(packetBytes) 0
attr interpolationmode none
attr source packetReceived
attr title "packets received, sum(packetBytes)"
scalar NetworkModified.host[2].udp packetSent:count 1104
attr interpolationmode none
attr source packetSent
attr title "packets sent, count"
scalar NetworkModified.host[2].udp packetSent:sum(packetBytes) 119232
attr interpolationmode none
attr source packetSent
attr title "packets sent, sum(packetBytes)"
scalar NetworkModified.host[2].udp passedUpPk:count 0
attr interpolationmode none
attr source packetSentToUpper
attr title "packets passed up, count"
scalar NetworkModified.host[2].udp droppedPkWrongPort:count 0
attr interpolationmode none
attr source packetDropReasonIsNoPortFound(packetDropped)
attr title "packets dropped (wrong port), count"
scalar NetworkModified.host[2].udp droppedPkBadChecksum:count 0
attr interpolationmode none
attr source packetDropReasonIsIncorrectlyReceived(packetDropped)
attr title "packets dropped (checksum error), count"
scalar NetworkModified.host[2].app[0] "packets sent" 1104
scalar NetworkModified.host[2].app[0] "packets received" 0
scalar NetworkModified.host[2].app[0] packetReceived:count 0
attr interpolationmode none
attr source packetReceived
attr title "packets received, count"
scalar NetworkModified.host[2].app[0] packetReceived:sum(packetBytes) 0
attr interpolationmode none
attr source packetReceived
attr title "packets received, sum(packetBytes)"
statistic NetworkModified.host[2].app[0] rcvdPkLifetime:stats
field count 0
field mean -nan
field stddev -nan
field min -nan
field max -nan
field sum 0
field sqrsum 0
attr interpolationmode none
attr source dataAge(packetReceived)
attr title "received packet lifetime, stats"
attr unit s
scalar NetworkModified.host[2].app[0] packetSent:count 1104
attr interpolationmode none
attr source packetSent
attr title "packets sent, count"
scalar NetworkModified.host[2].app[0] packetSent:sum(packetBytes) 110400
attr interpolationmode none
attr source packetSent
attr title "packets sent, sum(packetBytes)"
scalar NetworkModified.host[3].lo[0].lo rcvdPkFromHl:count 0
[...]
attr title "packets aggregated, count"
scalar NetworkModified.host[3].wlan[0].mac.dcf.originatorMacDataService packetFragmented:count 0
attr title "packets fragmented, count"
scalar NetworkModified.host[3].wlan[0].mac.dcf.recipientMacDataService packetDeaggregated:count 0
attr title "packets deaggregated, count"
scalar NetworkModified.host[3].wlan[0].mac.dcf.recipientMacDataService packetDefragmented:count 0
attr title "packets defragmented, count"
scalar NetworkModified.host[3].wlan[0].mac.dcf.recipientMacDataService packetDropDuplicateDetected:count 0
attr interpolationmode none
attr source packetDropReasonIsDuplicateDetected(packetDropped)
attr title "packet drops: duplicate detected, count"
scalar NetworkModified.host[3].wlan[0].mac.dcf.recipientMacDataService packetDropDuplicateDetected:sum(packetBytes) 0
attr interpolationmode none
attr source packetDropReasonIsDuplicateDetected(packetDropped)
attr title "packet drops: duplicate detected, sum(packetBytes)"
scalar NetworkModified.host[3].wlan[0].mac.dcf.recoveryProcedure retryLimitReached:count 274
attr title "retry limit reached, count"
scalar NetworkModified.host[3].wlan[0].mac.dcf frameSequenceFinished:count 2587
attr title "finished frame sequences, count"
statistic NetworkModified.host[3].wlan[0].mac.dcf frameSequenceDuration:histogram
field count 2587
field mean 0.00013613443367143
field stddev 3.3827765284685e-06
field min 0.00012645209
field max 0.000207461296
field sum 0.352179779908
field sqrsum 4.7973386944134e-05
attr source frameSequenceDuration(frameSequenceFinished)
attr title "frame sequence durations, histogram"
bin	-inf	0
bin	0.000106	0
bin	0.000108	0
bin	0.00011	0
bin	0.000112	0
bin	0.000114	0
bin	0.000116	0
bin	0.000118	0
bin	0.00012	0
bin	0.000122	0
bin	0.000124	0
bin	0.000126	226
bin	0.000128	0
bin	0.00013	0
bin	0.000132	0
bin	0.000134	0
bin	0.000136	2359
bin	0.000138	0
bin	0.00014	0
bin	0.000142	0
bin	0.000144	0
bin	0.000146	0
bin	0.000148	0
bin	0.00015	0
bin	0.000152	0
bin	0.000154	0
bin	0.000156	0
bin	0.000158	0
bin	0.00016	0
bin	0.000162	0
bin	0.000164	0
bin	0.000166	0
bin	0.000168	0
bin	0.00017	0
bin	0.000172	0
bin	0.000174	0
bin	0.000176	0
bin	0.000178	0
bin	0.00018	0
bin	0.000182	1
bin	0.000184	0
bin	0.000186	0
bin	0.000188	0
bin	0.00019	0
bin	0.000192	0
bin	0.000194	0
bin	0.000196	0
bin	0.000198	0
bin	0.0002	0
bin	0.000202	0
bin	0.000204	0
bin	0.000206	1
bin	0.000208	0
bin	0.00021	0
bin	0.000212	0
bin	0.000214	0
bin	0.000216	0
bin	0.000218	0
bin	0.00022	0
bin	0.000222	0
bin	0.000224	0
bin	0.000226	0
bin	0.000228	0
statistic NetworkModified.host[3].wlan[0].mac.dcf frameSequenceNumPackets:histogram
field count 2587
field mean 2
field stddev 0
field min 2
field max 2
field sum 5174
field sqrsum 10348
attr source frameSequenceNumPackets(frameSequenceFinished)
attr title "frame sequences: number of packets, histogram"
bin	-inf	0
bin	1	0
bin	2	2587
bin	3	0
scalar NetworkModified.host[3].wlan[0].mac.dcf packetReceivedFromPeer:count 226
attr interpolationmode none
attr title "packets received, count"
scalar NetworkModified.host[3].wlan[0].mac.dcf packetReceivedFromPeer:sum(packetBytes) 3164
attr interpolationmode none
attr title "packets received, sum(packetBytes)"
scalar NetworkModified.host[3].wlan[0].mac.dcf packetReceivedFromPeerUnicast:count 226
attr interpolationmode none
attr source ieee80211Unicast(packetReceivedFromPeer)
attr title "packets received: unicast, count"
scalar NetworkModified.host[3].wlan[0].mac.dcf packetReceivedFromPeerUnicast:sum(packetBytes) 3164
attr interpolationmode none
attr source ieee80211Unicast(packetReceivedFromPeer)
attr title "packets received: unicast, sum(packetBytes)"
scalar NetworkModified.host[3].wlan[0].mac.dcf packetReceivedFromPeerMulticast:count 0
attr interpolationmode none
attr source ieee80211Multicast(packetReceivedFromPeer)
attr title "packets received: multicast, count"
scalar NetworkModified.host[3].wlan[0].mac.dcf packetReceivedFromPeerMulticast:sum(packetBytes) 0
attr interpolationmode none
attr source ieee80211Multicast(packetReceivedFromPeer)
attr title "packets received: multicast, sum(packetBytes)"
scalar NetworkModified.host[3].wlan[0].mac.dcf packetReceivedFromPeerBroadcast:count 0
attr interpolationmode none
attr source ieee80211Broadcast(packetReceivedFromPeer)
attr title "packets received: broadcast, count"
scalar NetworkModified.host[3].wlan[0].mac.dcf packetReceivedFromPeerBroadcast:sum(packetBytes) 0
attr interpolationmode none
attr source ieee80211Broadcast(packetReceivedFromPeer)
attr title "packets received: broadcast, sum(packetBytes)"
scalar NetworkModified.host[3].wlan[0].mac.dcf packetReceivedFromPeerWithRetry:count 0
attr interpolationmode none
attr source ieee80211Retry(packetReceivedFromPeer)
attr title "packets received: with retry, count"
scalar NetworkModified.host[3].wlan[0].mac.dcf packetReceivedFromPeerWithRetry:sum(packetBytes) 0
attr interpolationmode none
attr source ieee80211Retry(packetReceivedFromPeer)
attr title "packets received: with retry, sum(packetBytes)"
scalar NetworkModified.host[3].wlan[0].mac.dcf packetReceivedFromPeerWithoutRetry:count 226
attr interpolationmode none
attr source ieee80211NotRetry(packetReceivedFromPeer)
attr title "packets received: without retry, count"
scalar NetworkModified.host[3].wlan[0].mac.dcf packetReceivedFromPeerWithoutRetry:sum(packetBytes) 3164
attr interpolationmode none
attr source ieee80211NotRetry(packetReceivedFromPeer)
attr title "packets received: without retry, sum(packetBytes)"
scalar NetworkModified.host[3].wlan[0].mac.dcf packetSentToPeer:count 2587
attr interpolationmode none
attr title "packets sent, count"
scalar NetworkModified.host[3].wlan[0].mac.dcf packetSentToPeer:sum(packetBytes) 398398
attr interpolationmode none
attr title "packets sent, sum(packetBytes)"
scalar NetworkModified.host[3].wlan[0].mac.dcf packetSentToPeerUnicast:count 2587
attr interpolationmode none
attr source ieee80211Unicast(packetSentToPeer)
attr title "packets sent: unicast, count"
scalar NetworkModified.host[3].wlan[0].mac.dcf packetSentToPeerUnicast:sum(packetBytes) 398398
attr interpolationmode none
attr source ieee80211Unicast(packetSentToPeer)
attr title "packets sent: unicast, sum(packetBytes)"
scalar NetworkModified.host[3].wlan[0].mac.dcf packetSentToPeerMulticast:count 0
attr interpolationmode none
attr source ieee80211Multicast(packetSentToPeer)
attr title "packets sent: multicast, count"
scalar NetworkModified.host[3].wlan[0].mac.dcf packetSentToPeerMulticast:sum(packetBytes) 0
attr interpolationmode none
attr source ieee80211Multicast(packetSentToPeer)
attr title "packets sent: multicast, sum(packetBytes)"
scalar NetworkModified.host[3].wlan[0].mac.dcf packetSentToPeerBroadcast:count 0
attr interpolationmode none
attr source ieee80211Broadcast(packetSentToPeer)
attr title "packets sent: broadcast , count"
scalar NetworkModified.host[3].wlan[0].mac.dcf packetSentToPeerBroadcast:sum(packetBytes) 0
attr interpolationmode none
attr source ieee80211Broadcast(packetSentToPeer)
attr title "packets sent: broadcast , sum(packetBytes)"
scalar NetworkModified.host[3].wlan[0].mac.dcf packetSentToPeerWithRetry:count 2086
attr interpolationmode none
attr source ieee80211Retry(packetSentToPeer)
attr title "packets sent: with retry, count"
scalar NetworkModified.host[3].wlan[0].mac.dcf packetSentToPeerWithRetry:sum(packetBytes) 321244
attr interpolationmode none
attr source ieee80211Retry(packetSentToPeer)
attr title "packets sent: with retry, sum(packetBytes)"
scalar NetworkModified.host[3].wlan[0].mac.dcf packetSentToPeerWithoutRetry:count 501
attr interpolationmode none
attr source ieee80211NotRetry(packetSentToPeer)
attr title "packets sent: without retry, count"
scalar NetworkModified.host[3].wlan[0].mac.dcf packetSentToPeerWithoutRetry:sum(packetBytes) 77154
attr interpolationmode none
attr source ieee80211NotRetry(packetSentToPeer)
attr title "packets sent: without retry, sum(packetBytes)"
scalar NetworkModified.host[3].wlan[0].mac.dcf packetDrop:count 3076
attr interpolationmode none
attr source packetDropped
attr title "packet drops, count"
scalar NetworkModified.host[3].wlan[0].mac.dcf packetDrop:sum(packetBytes) 443324
attr interpolationmode none
attr source packetDropped
attr title "packet drops, sum(packetBytes)"
scalar NetworkModified.host[3].wlan[0].mac.dcf packetDropNotAddressedToUs:count 2300
attr interpolationmode none
attr source packetDropReasonIsNotAddressedToUs(packetDropped)
attr title "packet drops: not addressed to us, count"
scalar NetworkModified.host[3].wlan[0].mac.dcf packetDropNotAddressedToUs:sum(packetBytes) 323820
attr interpolationmode none
attr source packetDropReasonIsNotAddressedToUs(packetDropped)
attr title "packet drops: not addressed to us, sum(packetBytes)"
scalar NetworkModified.host[3].wlan[0].mac.dcf packetDropQueueOverflow:count 502
attr interpolationmode none
attr source packetDropReasonIsQueueOverflow(packetDropped)
attr title "packet drops: queue overflow, count"
scalar NetworkModified.host[3].wlan[0].mac.dcf packetDropQueueOverflow:sum(packetBytes) 77308
attr interpolationmode none
attr source packetDropReasonIsQueueOverflow(packetDropped)
attr title "packet drops: queue overflow, sum(packetBytes)"
scalar NetworkModified.host[3].wlan[0].mac.dcf packetDropRetryLimitReached:count 274
attr interpolationmode none
attr source packetDropReasonIsRetryLimitReached(packetDropped)
attr title "packet drops: retry limit reached, count"
scalar NetworkModified.host[3].wlan[0].mac.dcf packetDropRetryLimitReached:sum(packetBytes) 42196
attr interpolationmode none
attr source packetDropReasonIsRetryLimitReached(packetDropped)
attr title "packet drops: retry limit reached, sum(packetBytes)"
scalar NetworkModified.host[3].wlan[0].mac.dcf linkBroken:count 274
attr interpolationmode none
attr title "link breaks, count"
scalar NetworkModified.host[3].wlan[0].mac packetReceivedFromLower:count 2529
attr interpolationmode none
attr title "packets received from lower layer, count"
scalar NetworkModified.host[3].wlan[0].mac packetReceivedFromLower:sum(packetBytes) 327306
attr interpolationmode none
attr title "packets received from lower layer, sum(packetBytes)"
scalar NetworkModified.host[3].wlan[0].mac packetSentToLower:count 2587
attr interpolationmode none
attr title "packets sent to lower layer, count"
scalar NetworkModified.host[3].wlan[0].mac packetSentToLower:sum(packetBytes) 398398
attr interpolationmode none
attr title "packets sent to lower layer, sum(packetBytes)"
scalar NetworkModified.host[3].wlan[0].mac packetReceivedFromUpper:count 1104
attr interpolationmode none
attr title "packets received from upper layer, count"
scalar NetworkModified.host[3].wlan[0].mac packetReceivedFromUpper:sum(packetBytes) 139104
attr interpolationmode none
attr title "packets received from upper layer, sum(packetBytes)"
scalar NetworkModified.host[3].wlan[0].mac packetSentToUpper:count 0
attr interpolationmode none
attr title "packets sent to upper layer, count"
scalar NetworkModified.host[3].wlan[0].mac packetSentToUpper:sum(packetBytes) 0
attr interpolationmode none
attr title "packets sent to upper layer, sum(packetBytes)"
scalar NetworkModified.host[3].wlan[0].mac packetDrop:count 3078
attr interpolationmode none
attr source packetDropped
attr title "packet drops, count"
scalar NetworkModified.host[3].wlan[0].mac packetDrop:sum(packetBytes) 443492
attr interpolationmode none
attr source packetDropped
attr title "packet drops, sum(packetBytes)"
scalar NetworkModified.host[3].wlan[0].mac packetDropIncorrectlyReceived:count 2
attr interpolationmode none
attr source packetDropReasonIsIncorrectlyReceived(packetDropped)
attr title "packet drops: incorrectly received, count"
scalar NetworkModified.host[3].wlan[0].mac packetDropIncorrectlyReceived:sum(packetBytes) 168
attr interpolationmode none
attr source packetDropReasonIsIncorrectlyReceived(packetDropped)
attr title "packet drops: incorrectly received, sum(packetBytes)"
scalar NetworkModified.host[3].wlan[0].mac packetDropNotAddressedToUs:count 2300
attr interpolationmode none
attr source packetDropReasonIsNotAddressedToUs(packetDropped)
attr title "packet drops: not addressed to us, count"
scalar NetworkModified.host[3].wlan[0].mac packetDropNotAddressedToUs:sum(packetBytes) 323820
attr interpolationmode none
attr source packetDropReasonIsNotAddressedToUs(packetDropped)
attr title "packet drops: not addressed to us, sum(packetBytes)"
scalar NetworkModified.host[3].wlan[0].mac packetDropQueueOverflow:count 502
attr interpolationmode none
attr source packetDropReasonIsQueueOverflow(packetDropped)
attr title "packet drops: queue overflow, count"
scalar NetworkModified.host[3].wlan[0].mac packetDropQueueOverflow:sum(packetBytes) 77308
attr interpolationmode none
attr source packetDropReasonIsQueueOverflow(packetDropped)
attr title "packet drops: queue overflow, sum(packetBytes)"
scalar NetworkModified.host[3].wlan[0].mac packetDropRetryLimitReached:count 274
attr interpolationmode none
attr source packetDropReasonIsRetryLimitReached(packetDropped)
attr title "packet drops: retry limit reached, count"
scalar NetworkModified.host[3].wlan[0].mac packetDropRetryLimitReached:sum(packetBytes) 42196
attr interpolationmode none
attr source packetDropReasonIsRetryLimitReached(packetDropped)
attr title "packet drops: retry limit reached, sum(packetBytes)"
scalar NetworkModified.host[3].wlan[0].mac packetDropDuplicateDetected:count 0
attr interpolationmode none
attr source packetDropReasonIsDuplicateDetected(packetDropped)
attr title "packet drops: duplicate detected, count"
scalar NetworkModified.host[3].wlan[0].mac packetDropDuplicateDetected:sum(packetBytes) 0
attr interpolationmode none
attr source packetDropReasonIsDuplicateDetected(packetDropped)
attr title "packet drops: duplicate detected, sum(packetBytes)"
scalar NetworkModified.host[3].wlan[0].mac packetDropOther:count 0
attr interpolationmode none
attr source packetDropReasonIsOther(packetDropped)
attr title "packet drops: other, count"
scalar NetworkModified.host[3].wlan[0].mac packetDropOther:sum(packetBytes) 0
attr interpolationmode none
attr source packetDropReasonIsOther(packetDropped)
attr title "packet drops: other, sum(packetBytes)"
scalar NetworkModified.host[3].wlan[0].mac linkBroken:count 274
attr interpolationmode none
attr title "link breaks, count"
statistic NetworkModified.host[3].wlan[0].radio radioChannel:histogram
field count 1
field mean 0
field stddev -nan
field min 0
field max 0
field sum 0
field sqrsum 0
attr interpolationmode sample-hold
attr source radioChannelChanged
attr title "Radio channel, histogram"
bin	-inf	0
bin	-0.5	0
bin	-0.48	0
bin	-0.46	0
bin	-0.44	0
bin	-0.42	0
bin	-0.4	0
bin	-0.38	0
bin	-0.36	0
bin	-0.34	0
bin	-0.32	0
bin	-0.3	0
bin	-0.28	0
bin	-0.26	0
bin	-0.24	0
bin	-0.22	0
bin	-0.2	0
bin	-0.18	0
bin	-0.16	0
bin	-0.14	0
bin	-0.12	0
bin	-0.1	0
bin	-0.08	0
bin	-0.06	0
bin	-0.04	0
bin	-0.02	0
bin	0	1
bin	0.02	0
bin	0.04	0
bin	0.06	0
bin	0.08	0
bin	0.1	0
bin	0.12	0
bin	0.14	0
bin	0.16	0
bin	0.18	0
bin	0.2	0
bin	0.22	0
bin	0.24	0
bin	0.26	0
bin	0.28	0
bin	0.3	0
bin	0.32	0
bin	0.34	0
bin	0.36	0
bin	0.38	0
bin	0.4	0
bin	0.42	0
bin	0.44	0
bin	0.46	0
bin	0.48	0
bin	0.5	0
scalar NetworkModified.host[3].wlan[0].radio radioMode:count 5177
attr interpolationmode sample-hold
attr source radioModeChanged
attr title "Radio mode, count"
scalar NetworkModified.host[3].wlan[0].radio receptionState:count 10242
attr interpolationmode sample-hold
attr source receptionStateChanged
attr title "Radio reception state, count"
scalar NetworkModified.host[3].wlan[0].radio transmissionState:count 10348
attr interpolationmode sample-hold
attr source transmissionStateChanged
attr title "Radio transmission state, count"
statistic NetworkModified.host[3].wlan[0].radio minSnir:histogram
field count 2529
field mean 26738.998575609
field stddev 318457.11512748
field min 0.22461487926931
field max 14403080.612853
field sum 67622927.397715
field sqrsum 2.5818512295457e+14
attr source minimumSnir(packetSentToUpper)
attr title "Min SNIR, histogram"
bin	-inf	0
bin	0	2492
bin	270000	14
bin	540000	9
bin	810000	4
bin	1080000	2
bin	1350000	1
bin	1620000	3
bin	1890000	0
bin	2160000	0
bin	2430000	1
bin	2700000	1
bin	2970000	1
bin	3240000	0
bin	3510000	0
bin	3780000	0
bin	4050000	0
bin	4320000	0
bin	4590000	0
bin	4860000	0
bin	5130000	0
bin	5400000	0
bin	5670000	0
bin	5940000	0
bin	6210000	0
bin	6480000	0
bin	6750000	0
bin	7020000	0
bin	7290000	0
bin	7560000	0
bin	7830000	0
bin	8100000	0
bin	8370000	0
bin	8640000	0
bin	8910000	0
bin	9180000	0
bin	9450000	0
bin	9720000	0
bin	9990000	0
bin	10260000	0
bin	10530000	0
bin	10800000	0
bin	11070000	0
bin	11340000	0
bin	11610000	0
bin	11880000	0
bin	12150000	0
bin	12420000	0
bin	12690000	0
bin	12960000	0
bin	13230000	0
bin	13500000	0
bin	13770000	0
bin	14040000	0
bin	14310000	1
bin	14580000	0
statistic NetworkModified.host[3].wlan[0].radio packetErrorRate:histogram
field count 2529
field mean 0.00079082641360221
field stddev 0.028116073458044
field min 0
field max 1
field sum 2
field sqrsum 2
attr source packetErrorRate(packetSentToUpper)
attr title "Packet error rate, histogram"
bin	-inf	0
bin	0	2527
bin	1	2
bin	2	0
statistic NetworkModified.host[3].wlan[0].radio bitErrorRate:histogram
field count 0
field mean -nan
field stddev -nan
field min -nan
field max -nan
field sum 0
field sqrsum 0
attr source bitErrorRate(packetSentToUpper)
attr title "Bit error rate, histogram"
bin	-inf	0
bin	0	0
bin	1	0
statistic NetworkModified.host[3].wlan[0].radio symbolErrorRate:histogram
field count 0
field mean -nan
field stddev -nan
field min -nan
field max -nan
field sum 0
field sqrsum 0
attr source symbolErrorRate(packetSentToUpper)
attr title "Symbol error rate, histogram"
bin	-inf	0
bin	0	0
bin	1	0
scalar NetworkModified.host[3].udp packetReceived:count 0
attr interpolationmode none
attr source packetReceived
attr title "packets received, count"
scalar NetworkModified.host[3].udp packetReceived:sum(packetBytes) 0
attr interpolationmode none
attr source packetReceived
attr title "packets received, sum(packetBytes)"
scalar NetworkModified.host[3].udp packetSent:count 1104
attr interpolationmode none
attr source packetSent
attr title "packets sent, count"
scalar NetworkModified.host[3].udp packetSent:sum(packetBytes) 119232
attr interpolationmode none
attr source packetSent
attr title "packets sent, sum(packetBytes)"
scalar NetworkModified.host[3].udp passedUpPk:count 0
attr interpolationmode none
attr source packetSentToUpper
attr title "packets passed up, count"
scalar NetworkModified.host[3].udp droppedPkWrongPort:count 0
attr interpolationmode none
attr source packetDropReasonIsNoPortFound(packetDropped)
attr title "packets dropped (wrong port), count"
scalar NetworkModified.host[3].udp droppedPkBadChecksum:count 0
attr interpolationmode none
attr source packetDropReasonIsIncorrectlyReceived(packetDropped)
attr title "packets dropped (checksum error), count"
scalar NetworkModified.host[3].app[0] "packets sent" 1104
scalar NetworkModified.host[3].app[0] "packets received" 0
scalar NetworkModified.host[3].app[0] packetReceived:count 0
attr interpolationmode none
attr source packetReceived
attr title "packets received, count"
scalar NetworkModified.host[3].app[0] packetReceived:sum(packetBytes) 0
attr interpolationmode none
attr source packetReceived
attr title "packets received, sum(packetBytes)"
statistic NetworkModified.host[3].app[0] rcvdPkLifetime:stats
field count 0
field mean -nan
field stddev -nan
field min -nan
field max -nan
field sum 0
field sqrsum 0
attr interpolationmode none
attr source dataAge(packetReceived)
attr title "received packet lifetime, stats"
attr unit s
scalar NetworkModified.host[3].app[0] packetSent:count 1104
attr interpolationmode none
attr source packetSent
attr title "packets sent, count"
scalar NetworkModified.host[3].app[0] packetSent:sum(packetBytes) 110400
attr interpolationmode none
attr source packetSent
attr title "packets sent, sum(packetBytes)"

