file 4940854 1590419196                                         
version 2
run MobilityFirst-0-20200525-17:05:25-31497
attr configname MobilityFirst
attr datetime 20200525-17:05:25
attr experiment MobilityFirst
attr inifile omnetpp.ini
attr iterationvars ""
attr iterationvarsf ""
attr measurement ""
attr network NetworkModified
attr processid 31497
attr repetition 0
attr replication #0
attr resultdir results
attr runnumber 0
attr seedset 0
param **.host[0..3].mobility.typename "\"MassMobility\""
param **.host[0..3].mobility.initFromDisplayString false
param **.host[0..3].mobility.changeInterval "truncnormal(2s, 0.5s)"
param **.host[0..3].mobility.angleDelta "normal(0deg, 30deg)"
param **.host[0..3].mobility.speed "truncnormal(20mps, 8mps)"
param **.host[0..3].mobility.updateInterval 100ms
param **.host[4..19].mobility.typename "\"StationaryMobility\""
param **.host[4..19].mobility.initFromDisplayString false
param **.host[4..19].app[0].typename "\"UdpSink\""
param **.host[4..19].app[0].localPort 7654
param **.host[0..3].app[0].typename "\"UdpBasicApp\""
param **.host[0..3].app[0].destPort 7654
param **.host[0].app[0].destAddresses "\"host[16]\""
param **.host[1].app[0].destAddresses "\"host[17]\""
param **.host[2].app[0].destAddresses "\"host[18]\""
param **.host[3].app[0].destAddresses "\"host[19]\""
param **.host[0..3].app[0].messageLength 100B
param **.host[0..3].app[0].startTime "uniform(0s, 10ms)"
param **.host[0..3].app[0].sendInterval 20ms
param **.host[0].app[0].packetName "\"UDP_Data_Sender0\""
param **.host[1].app[0].packetName "\"UDP_Data_Sender1\""
param **.host[2].app[0].packetName "\"UDP_Data_Sender2\""
param **.host[3].app[0].packetName "\"UDP_Data_Sender3\""
param **.host[0].generic.nextHop.nextHopParam "\"host[4].wlan[0]\""
param **.host[1].generic.nextHop.nextHopParam "\"host[7].wlan[0]\""
param **.host[2].generic.nextHop.nextHopParam "\"host[10].wlan[0]\""
param **.host[3].generic.nextHop.nextHopParam "\"host[13].wlan[0]\""
param **.host[4].generic.nextHop.nextHopParam "\"host[5].wlan[0]\""
param **.host[5].generic.nextHop.nextHopParam "\"host[6].wlan[0]\""
param **.host[6].generic.nextHop.nextHopParam "\"host[16].wlan[0]\""
param **.host[7].generic.nextHop.nextHopParam "\"host[8].wlan[0]\""
param **.host[8].generic.nextHop.nextHopParam "\"host[9].wlan[0]\""
param **.host[9].generic.nextHop.nextHopParam "\"host[17].wlan[0]\""
param **.host[10].generic.nextHop.nextHopParam "\"host[11].wlan[0]\""
param **.host[11].generic.nextHop.nextHopParam "\"host[12].wlan[0]\""
param **.host[12].generic.nextHop.nextHopParam "\"host[18].wlan[0]\""
param **.host[13].generic.nextHop.nextHopParam "\"host[14].wlan[0]\""
param **.host[14].generic.nextHop.nextHopParam "\"host[15].wlan[0]\""
param **.host[15].generic.nextHop.nextHopParam "\"host[19].wlan[0]\""
param **.host[16].generic.nextHop.nextHopParam "\"host[16].wlan[0]\""
param **.host[17].generic.nextHop.nextHopParam "\"host[17].wlan[0]\""
param **.host[18].generic.nextHop.nextHopParam "\"host[18].wlan[0]\""
param **.host[19].generic.nextHop.nextHopParam "\"host[19].wlan[0]\""
param **.host[*].mobility.initialZ 0m
param **.host[0].mobility.initialX 100m
param **.host[0].mobility.initialY 100m
param **.host[1].mobility.initialX 100m
param **.host[1].mobility.initialY 250m
param **.host[2].mobility.initialX 100m
param **.host[2].mobility.initialY 400m
param **.host[3].mobility.initialX 100m
param **.host[3].mobility.initialY 550m
param **.host[4].mobility.initialX 150m
param **.host[4].mobility.initialY 100m
param **.host[5].mobility.initialX 200m
param **.host[5].mobility.initialY 100m
param **.host[6].mobility.initialX 250m
param **.host[6].mobility.initialY 100m
param **.host[7].mobility.initialX 150m
param **.host[7].mobility.initialY 250m
param **.host[8].mobility.initialX 200m
param **.host[8].mobility.initialY 250m
param **.host[9].mobility.initialX 250m
param **.host[9].mobility.initialY 250m
param **.host[10].mobility.initialX 150m
param **.host[10].mobility.initialY 400m
param **.host[11].mobility.initialX 200m
param **.host[11].mobility.initialY 400m
param **.host[12].mobility.initialX 250m
param **.host[12].mobility.initialY 400m
param **.host[13].mobility.initialX 150m
param **.host[13].mobility.initialY 550m
param **.host[14].mobility.initialX 200m
param **.host[14].mobility.initialY 550m
param **.host[15].mobility.initialX 250m
param **.host[15].mobility.initialY 550m
param **.host[16].mobility.initialX 300m
param **.host[16].mobility.initialY 100m
param **.host[17].mobility.initialX 300m
param **.host[17].mobility.initialY 250m
param **.host[18].mobility.initialX 300m
param **.host[18].mobility.initialY 400m
param **.host[19].mobility.initialX 300m
param **.host[19].mobility.initialY 550m
param **.constraintAreaMaxX 1000m
param **.constraintAreaMaxY 1000m
param **.constraintAreaMaxZ 0m
param **.constraintAreaMinX 0m
param **.constraintAreaMinY 0m
param **.constraintAreaMinZ 0m
param **.number 20
param **.networkConfiguratorModule "\"networkConfigurator\""
param **.networkConfigurator.config "xmldoc(\"lessnodes.xml\")"
param **.host[*].hasIpv4 false
param **.host[*].hasIpv6 false
param **.host[*].hasGn true
param **.host[*].generic.typename "\"NextHopNetworkLayer\""
param **.host[*].generic.nextHop.hopLimit 4
param **.numApps 1
param **.radioMedium.pathLoss.typename "\"LogNormalShadowing\""
param **.radioMedium.pathLoss.alpha 3
param **.radioMedium.pathLoss.sigma 7
param **.networkConfigurator.typename "\"NextHopNetworkConfigurator\""
param *.host[*].wlan[2].radio.displayCommunicationRange true
param *.visualizer.sceneVisualizer.descriptionFigure "\"title\""
param *.visualizer.mediumVisualizer.displaySignals true
param *.visualizer.physicalLinkVisualizer.displayLinks true
param *.host[*].wlan[0].radio.transmitter.communicationRange 200m
param *.host[*].wlan[0].radio.displayCommunicationRange true

vector 0 NetworkModified.host[0].wlan[0].radio radioMode:vector ETV
attr interpolationmode sample-hold
attr source radioModeChanged
attr title "Radio mode, vector"
vector 1 NetworkModified.host[0].wlan[0].radio radioChannel:vector ETV
attr interpolationmode sample-hold
attr source radioChannelChanged
attr title "Radio channel, vector"
vector 2 NetworkModified.host[1].wlan[0].radio radioMode:vector ETV
attr interpolationmode sample-hold
attr source radioModeChanged
attr title "Radio mode, vector"
vector 3 NetworkModified.host[1].wlan[0].radio radioChannel:vector ETV
attr interpolationmode sample-hold
attr source radioChannelChanged
attr title "Radio channel, vector"
vector 4 NetworkModified.host[2].wlan[0].radio radioMode:vector ETV
attr interpolationmode sample-hold
attr source radioModeChanged
attr title "Radio mode, vector"
vector 5 NetworkModified.host[2].wlan[0].radio radioChannel:vector ETV
attr interpolationmode sample-hold
attr source radioChannelChanged
attr title "Radio channel, vector"
vector 6 NetworkModified.host[3].wlan[0].radio radioMode:vector ETV
attr interpolationmode sample-hold
attr source radioModeChanged
attr title "Radio mode, vector"
vector 7 NetworkModified.host[3].wlan[0].radio radioChannel:vector ETV
attr interpolationmode sample-hold
attr source radioChannelChanged
attr title "Radio channel, vector"
vector 8 NetworkModified.host[4].wlan[0].radio radioMode:vector ETV
attr interpolationmode sample-hold
attr source radioModeChanged
attr title "Radio mode, vector"
vector 9 NetworkModified.host[4].wlan[0].radio radioChannel:vector ETV
attr interpolationmode sample-hold
attr source radioChannelChanged
attr title "Radio channel, vector"
vector 10 NetworkModified.host[5].wlan[0].radio radioMode:vector ETV
attr interpolationmode sample-hold
attr source radioModeChanged
attr title "Radio mode, vector"
vector 11 NetworkModified.host[5].wlan[0].radio radioChannel:vector ETV
attr interpolationmode sample-hold
attr source radioChannelChanged
attr title "Radio channel, vector"
vector 12 NetworkModified.host[6].wlan[0].radio radioMode:vector ETV
attr interpolationmode sample-hold
attr source radioModeChanged
attr title "Radio mode, vector"
vector 13 NetworkModified.host[6].wlan[0].radio radioChannel:vector ETV
attr interpolationmode sample-hold
attr source radioChannelChanged
attr title "Radio channel, vector"
vector 14 NetworkModified.host[7].wlan[0].radio radioMode:vector ETV
attr interpolationmode sample-hold
attr source radioModeChanged
attr title "Radio mode, vector"
vector 15 NetworkModified.host[7].wlan[0].radio radioChannel:vector ETV
attr interpolationmode sample-hold
attr source radioChannelChanged
attr title "Radio channel, vector"
vector 16 NetworkModified.host[8].wlan[0].radio radioMode:vector ETV
attr interpolationmode sample-hold
attr source radioModeChanged
attr title "Radio mode, vector"
vector 17 NetworkModified.host[8].wlan[0].radio radioChannel:vector ETV
attr interpolationmode sample-hold
attr source radioChannelChanged
attr title "Radio channel, vector"
vector 18 NetworkModified.host[9].wlan[0].radio radioMode:vector ETV
attr interpolationmode sample-hold
attr source radioModeChanged
attr title "Radio mode, vector"
vector 19 NetworkModified.host[9].wlan[0].radio radioChannel:vector ETV
attr interpolationmode sample-hold
attr source radioChannelChanged
attr title "Radio channel, vector"
vector 20 NetworkModified.host[10].wlan[0].radio radioMode:vector ETV
attr interpolationmode sample-hold
attr source radioModeChanged
attr title "Radio mode, vector"
vector 21 NetworkModified.host[10].wlan[0].radio radioChannel:vector ETV
attr interpolationmode sample-hold
attr source radioChannelChanged
attr title "Radio channel, vector"
vector 22 NetworkModified.host[11].wlan[0].radio radioMode:vector ETV
attr interpolationmode sample-hold
attr source radioModeChanged
attr title "Radio mode, vector"
vector 23 NetworkModified.host[11].wlan[0].radio radioChannel:vector ETV
attr interpolationmode sample-hold
attr source radioChannelChanged
attr title "Radio channel, vector"
vector 24 NetworkModified.host[12].wlan[0].radio radioMode:vector ETV
attr interpolationmode sample-hold
attr source radioModeChanged
attr title "Radio mode, vector"
vector 25 NetworkModified.host[12].wlan[0].radio radioChannel:vector ETV
attr interpolationmode sample-hold
attr source radioChannelChanged
attr title "Radio channel, vector"
vector 26 NetworkModified.host[13].wlan[0].radio radioMode:vector ETV
attr interpolationmode sample-hold
attr source radioModeChanged
attr title "Radio mode, vector"
vector 27 NetworkModified.host[13].wlan[0].radio radioChannel:vector ETV
attr interpolationmode sample-hold
attr source radioChannelChanged
attr title "Radio channel, vector"
vector 28 NetworkModified.host[14].wlan[0].radio radioMode:vector ETV
attr interpolationmode sample-hold
attr source radioModeChanged
attr title "Radio mode, vector"
vector 29 NetworkModified.host[14].wlan[0].radio radioChannel:vector ETV
attr interpolationmode sample-hold
attr source radioChannelChanged
attr title "Radio channel, vector"
vector 30 NetworkModified.host[15].wlan[0].radio radioMode:vector ETV
attr interpolationmode sample-hold
attr source radioModeChanged
attr title "Radio mode, vector"
vector 31 NetworkModified.host[15].wlan[0].radio radioChannel:vector ETV
attr interpolationmode sample-hold
attr source radioChannelChanged
attr title "Radio channel, vector"
vector 32 NetworkModified.host[16].wlan[0].radio radioMode:vector ETV
attr interpolationmode sample-hold
attr source radioModeChanged
attr title "Radio mode, vector"
vector 33 NetworkModified.host[16].wlan[0].radio radioChannel:vector ETV
attr interpolationmode sample-hold
attr source radioChannelChanged
attr title "Radio channel, vector"
vector 34 NetworkModified.host[17].wlan[0].radio radioMode:vector ETV
attr interpolationmode sample-hold
attr source radioModeChanged
attr title "Radio mode, vector"
vector 35 NetworkModified.host[17].wlan[0].radio radioChannel:vector ETV
attr interpolationmode sample-hold
attr source radioChannelChanged
attr title "Radio channel, vector"
vector 36 NetworkModified.host[18].wlan[0].radio radioMode:vector ETV
attr interpolationmode sample-hold
attr source radioModeChanged
attr title "Radio mode, vector"
vector 37 NetworkModified.host[18].wlan[0].radio radioChannel:vector ETV
attr interpolationmode sample-hold
attr source radioChannelChanged
attr title "Radio channel, vector"
vector 38 NetworkModified.host[19].wlan[0].radio radioMode:vector ETV
attr interpolationmode sample-hold
attr source radioModeChanged
attr title "Radio mode, vector"
vector 39 NetworkModified.host[19].wlan[0].radio radioChannel:vector ETV
attr interpolationmode sample-hold
attr source radioChannelChanged
attr title "Radio channel, vector"
vector 40 NetworkModified.host[0].wlan[0].radio receptionState:vector ETV
attr interpolationmode sample-hold
attr source receptionStateChanged
attr title "Radio reception state, vector"
vector 41 NetworkModified.host[1].wlan[0].radio receptionState:vector ETV
attr interpolationmode sample-hold
attr source receptionStateChanged
attr title "Radio reception state, vector"
vector 42 NetworkModified.host[2].wlan[0].radio receptionState:vector ETV
attr interpolationmode sample-hold
attr source receptionStateChanged
attr title "Radio reception state, vector"
vector 43 NetworkModified.host[3].wlan[0].radio receptionState:vector ETV
attr interpolationmode sample-hold
attr source receptionStateChanged
attr title "Radio reception state, vector"
vector 44 NetworkModified.host[4].wlan[0].radio receptionState:vector ETV
attr interpolationmode sample-hold
attr source receptionStateChanged
attr title "Radio reception state, vector"
vector 45 NetworkModified.host[5].wlan[0].radio receptionState:vector ETV
attr interpolationmode sample-hold
attr source receptionStateChanged
attr title "Radio reception state, vector"
vector 46 NetworkModified.host[6].wlan[0].radio receptionState:vector ETV
attr interpolationmode sample-hold
attr source receptionStateChanged
attr title "Radio reception state, vector"
vector 47 NetworkModified.host[7].wlan[0].radio receptionState:vector ETV
attr interpolationmode sample-hold
attr source receptionStateChanged
attr title "Radio reception state, vector"
vector 48 NetworkModified.host[8].wlan[0].radio receptionState:vector ETV
attr interpolationmode sample-hold
attr source receptionStateChanged
attr title "Radio reception state, vector"
vector 49 NetworkModified.host[9].wlan[0].radio receptionState:vector ETV
attr interpolationmode sample-hold
attr source receptionStateChanged
attr title "Radio reception state, vector"
vector 50 NetworkModified.host[10].wlan[0].radio receptionState:vector ETV
attr interpolationmode sample-hold
attr source receptionStateChanged
attr title "Radio reception state, vector"
vector 51 NetworkModified.host[11].wlan[0].radio receptionState:vector ETV
attr interpolationmode sample-hold
attr source receptionStateChanged
attr title "Radio reception state, vector"
vector 52 NetworkModified.host[12].wlan[0].radio receptionState:vector ETV
attr interpolationmode sample-hold
attr source receptionStateChanged
attr title "Radio reception state, vector"
vector 53 NetworkModified.host[13].wlan[0].radio receptionState:vector ETV
attr interpolationmode sample-hold
attr source receptionStateChanged
attr title "Radio reception state, vector"
vector 54 NetworkModified.host[14].wlan[0].radio receptionState:vector ETV
attr interpolationmode sample-hold
attr source receptionStateChanged
attr title "Radio reception state, vector"
vector 55 NetworkModified.host[15].wlan[0].radio receptionState:vector ETV
attr interpolationmode sample-hold
attr source receptionStateChanged
attr title "Radio reception state, vector"
vector 56 NetworkModified.host[16].wlan[0].radio receptionState:vector ETV
attr interpolationmode sample-hold
attr source receptionStateChanged
attr title "Radio reception state, vector"
vector 57 NetworkModified.host[17].wlan[0].radio receptionState:vector ETV
attr interpolationmode sample-hold
attr source receptionStateChanged
attr title "Radio reception state, vector"
vector 58 NetworkModified.host[18].wlan[0].radio receptionState:vector ETV
attr interpolationmode sample-hold
attr source receptionStateChanged
attr title "Radio reception state, vector"
vector 59 NetworkModified.host[19].wlan[0].radio receptionState:vector ETV
attr interpolationmode sample-hold
attr source receptionStateChanged
attr title "Radio reception state, vector"
vector 60 NetworkModified.host[0].wlan[0].mac.dcf.recoveryProcedure contentionWindowChanged:vector ETV
attr interpolationmode sample-hold
attr title "contention window, vector"
vector 61 NetworkModified.host[1].wlan[0].mac.dcf.recoveryProcedure contentionWindowChanged:vector ETV
attr interpolationmode sample-hold
attr title "contention window, vector"
vector 62 NetworkModified.host[2].wlan[0].mac.dcf.recoveryProcedure contentionWindowChanged:vector ETV
attr interpolationmode sample-hold
attr title "contention window, vector"
vector 63 NetworkModified.host[3].wlan[0].mac.dcf.recoveryProcedure contentionWindowChanged:vector ETV
attr interpolationmode sample-hold
attr title "contention window, vector"
vector 64 NetworkModified.host[4].wlan[0].mac.dcf.recoveryProcedure contentionWindowChanged:vector ETV
attr interpolationmode sample-hold
attr title "contention window, vector"
vector 65 NetworkModified.host[5].wlan[0].mac.dcf.recoveryProcedure contentionWindowChanged:vector ETV
attr interpolationmode sample-hold
attr title "contention window, vector"
vector 66 NetworkModified.host[6].wlan[0].mac.dcf.recoveryProcedure contentionWindowChanged:vector ETV
attr interpolationmode sample-hold
attr title "contention window, vector"
vector 67 NetworkModified.host[7].wlan[0].mac.dcf.recoveryProcedure contentionWindowChanged:vector ETV
attr interpolationmode sample-hold
attr title "contention window, vector"
vector 68 NetworkModified.host[8].wlan[0].mac.dcf.recoveryProcedure contentionWindowChanged:vector ETV
attr interpolationmode sample-hold
attr title "contention window, vector"
vector 69 NetworkModified.host[9].wlan[0].mac.dcf.recoveryProcedure contentionWindowChanged:vector ETV
attr interpolationmode sample-hold
attr title "contention window, vector"
vector 70 NetworkModified.host[10].wlan[0].mac.dcf.recoveryProcedure contentionWindowChanged:vector ETV
attr interpolationmode sample-hold
attr title "contention window, vector"
vector 71 NetworkModified.host[11].wlan[0].mac.dcf.recoveryProcedure contentionWindowChanged:vector ETV
attr interpolationmode sample-hold
attr title "contention window, vector"
vector 72 NetworkModified.host[12].wlan[0].mac.dcf.recoveryProcedure contentionWindowChanged:vector ETV
attr interpolationmode sample-hold
attr title "contention window, vector"
vector 73 NetworkModified.host[13].wlan[0].mac.dcf.recoveryProcedure contentionWindowChanged:vector ETV
attr interpolationmode sample-hold
attr title "contention window, vector"
vector 74 NetworkModified.host[14].wlan[0].mac.dcf.recoveryProcedure contentionWindowChanged:vector ETV
attr interpolationmode sample-hold
attr title "contention window, vector"
vector 75 NetworkModified.host[15].wlan[0].mac.dcf.recoveryProcedure contentionWindowChanged:vector ETV
attr interpolationmode sample-hold
attr title "contention window, vector"
vector 76 NetworkModified.host[16].wlan[0].mac.dcf.recoveryProcedure contentionWindowChanged:vector ETV
attr interpolationmode sample-hold
attr title "contention window, vector"
vector 77 NetworkModified.host[17].wlan[0].mac.dcf.recoveryProcedure contentionWindowChanged:vector ETV
attr interpolationmode sample-hold
attr title "contention window, vector"
vector 78 NetworkModified.host[18].wlan[0].mac.dcf.recoveryProcedure contentionWindowChanged:vector ETV
attr interpolationmode sample-hold
attr title "contention window, vector"
vector 79 NetworkModified.host[19].wlan[0].mac.dcf.recoveryProcedure contentionWindowChanged:vector ETV
attr interpolationmode sample-hold
attr title "contention window, vector"
vector 80 NetworkModified.host[0].app[0] packetSent:vector(packetBytes) ETV
attr interpolationmode none
attr source packetSent
attr title "packets sent, vector(packetBytes)"
vector 81 NetworkModified.host[0].udp packetSent:vector(packetBytes) ETV
attr interpolationmode none
attr source packetSent
attr title "packets sent, vector(packetBytes)"
vector 82 NetworkModified.host[0].wlan[0].mac packetReceivedFromUpper:vector(packetBytes) ETV
attr interpolationmode none
attr title "packets received from upper layer, vector(packetBytes)"
vector 83 NetworkModified.host[0].wlan[0].mac.dcf.channelAccess.pendingQueue packetPushed:vector(packetBytes) ETV
attr interpolationmode none
attr title "packet pushed, vector(packetBytes)"
vector 84 NetworkModified.host[0].wlan[0].mac.dcf.channelAccess.pendingQueue queueLength:vector ETV
attr interpolationmode sample-hold
attr source "count(packetPushed) - count(packetPopped) - count(packetRemoved) - count(packetDropped)"
attr title "queue length, vector"
vector 85 NetworkModified.host[0].wlan[0].mac.dcf.channelAccess.contention backoffPeriodGenerated:vector ETV
attr interpolationmode none
attr title "backoff periods, vector"
vector 86 NetworkModified.host[0].wlan[0].mac.dcf.channelAccess.contention backoffActive:vector ETV
attr interpolationmode sample-hold
attr source count(backoffStarted)-count(backoffStopped)
attr title "backoff active, vector"
vector 87 NetworkModified.host[0].wlan[0].mac.dcf.channelAccess.pendingQueue packetPopped:vector(packetBytes) ETV
attr interpolationmode none
attr title "packet popped, vector(packetBytes)"
vector 88 NetworkModified.host[0].wlan[0].mac.dcf.channelAccess.pendingQueue queueingTime:vector ETV
attr interpolationmode none
attr source queueingTime(packetPopped)
attr title "queueing times, vector"
attr unit s
vector 89 NetworkModified.host[0].wlan[0].mac.dcf.channelAccess.inProgressFrames queueLength:vector ETV
attr interpolationmode sample-hold
attr source "count(packetEnqueued) - count(packetDequeued)"
attr title "queue length, vector"
vector 90 NetworkModified.host[0].wlan[0].mac.dcf datarateSelected:vector ETV
attr interpolationmode none
attr title "datarates selected, vector"
vector 91 NetworkModified.host[0].wlan[0].mac packetSentToLower:vector(packetBytes) ETV
attr interpolationmode none
attr title "packets sent to lower layer, vector(packetBytes)"
vector 92 NetworkModified.host[0].wlan[0].mac.dcf frameSequenceActive:vector ETV
attr interpolationmode sample-hold
attr source count(frameSequenceStarted)-count(frameSequenceFinished)
attr title "frame sequence active, vector"
vector 93 NetworkModified.host[0].wlan[0].radio transmissionState:vector ETV
attr interpolationmode sample-hold
attr source transmissionStateChanged
attr title "Radio transmission state, vector"
vector 94 NetworkModified.host[0].wlan[0].mac.dcf packetSentToPeer:vector(packetBytes) ETV
attr interpolationmode none
attr title "packets sent, vector(packetBytes)"
vector 95 NetworkModified.host[0].wlan[0].mac.dcf packetSentToPeerUnicast:vector(packetBytes) ETV
attr interpolationmode none
attr source ieee80211Unicast(packetSentToPeer)
attr title "packets sent: unicast, vector(packetBytes)"
vector 96 NetworkModified.host[0].wlan[0].mac.dcf packetSentToPeerWithoutRetry:vector(packetBytes) ETV
attr interpolationmode none
attr source ieee80211NotRetry(packetSentToPeer)
attr title "packets sent: without retry, vector(packetBytes)"
vector 97 NetworkModified.host[0].wlan[0].mac.rx nav:vector ETV
attr interpolationmode linear
attr source navChanged
attr title "network allocation vector, vector"
vector 98 NetworkModified.host[6].wlan[0].mac packetReceivedFromLower:vector(packetBytes) ETV
attr interpolationmode none
attr title "packets received from lower layer, vector(packetBytes)"
vector 99 NetworkModified.host[6].wlan[0].mac.rx nav:vector ETV
attr interpolationmode linear
attr source navChanged
attr title "network allocation vector, vector"
vector 100 NetworkModified.host[6].wlan[0].mac.dcf packetDrop:vector(packetBytes) ETV
attr interpolationmode none
attr source packetDropped
attr title "packet drops, vector(packetBytes)"
vector 101 NetworkModified.host[6].wlan[0].mac.dcf packetDropNotAddressedToUs:vector(packetBytes) ETV
attr interpolationmode none
attr source packetDropReasonIsNotAddressedToUs(packetDropped)
attr title "packet drops: not addressed to us, vector(packetBytes)"
vector 102 NetworkModified.host[6].wlan[0].mac packetDrop:vector(packetBytes) ETV
attr interpolationmode none
attr source packetDropped
attr title "packet drops, vector(packetBytes)"
vector 103 NetworkModified.host[6].wlan[0].mac packetDropNotAddressedToUs:vector(packetBytes) ETV
attr interpolationmode none
attr source packetDropReasonIsNotAddressedToUs(packetDropped)
attr title "packet drops: not addressed to us, vector(packetBytes)"
vector 104 NetworkModified.host[0].wlan[0].mac.dcf packetSentToPeerWithRetry:vector(packetBytes) ETV
attr interpolationmode none
attr source ieee80211Retry(packetSentToPeer)
attr title "packets sent: with retry, vector(packetBytes)"
vector 105 NetworkModified.host[4].wlan[0].mac packetReceivedFromLower:vector(packetBytes) ETV
attr interpolationmode none
attr title "packets received from lower layer, vector(packetBytes)"
vector 106 NetworkModified.host[4].wlan[0].mac.dcf packetReceivedFromPeer:vector(packetBytes) ETV
attr interpolationmode none
attr title "packets received, vector(packetBytes)"
vector 107 NetworkModified.host[4].wlan[0].mac.dcf packetReceivedFromPeerUnicast:vector(packetBytes) ETV
attr interpolationmode none
attr source ieee80211Unicast(packetReceivedFromPeer)
attr title "packets received: unicast, vector(packetBytes)"
vector 108 NetworkModified.host[4].wlan[0].mac.dcf packetReceivedFromPeerWithRetry:vector(packetBytes) ETV
attr interpolationmode none
attr source ieee80211Retry(packetReceivedFromPeer)
attr title "packets received: with retry, vector(packetBytes)"
vector 109 NetworkModified.host[4].wlan[0].mac.dcf datarateSelected:vector ETV
attr interpolationmode none
attr title "datarates selected, vector"
vector 110 NetworkModified.host[4].wlan[0].mac packetSentToUpper:vector(packetBytes) ETV
attr interpolationmode none
attr title "packets sent to upper layer, vector(packetBytes)"
vector 111 NetworkModified.host[4].wlan[0].mac packetReceivedFromUpper:vector(packetBytes) ETV
attr interpolationmode none
attr title "packets received from upper layer, vector(packetBytes)"
vector 112 NetworkModified.host[4].wlan[0].mac.dcf.channelAccess.pendingQueue packetPushed:vector(packetBytes) ETV
attr interpolationmode none
attr title "packet pushed, vector(packetBytes)"
vector 113 NetworkModified.host[4].wlan[0].mac.dcf.channelAccess.pendingQueue queueLength:vector ETV
attr interpolationmode sample-hold
attr source "count(packetPushed) - count(packetPopped) - count(packetRemoved) - count(packetDropped)"
attr title "queue length, vector"
vector 114 NetworkModified.host[4].wlan[0].mac.dcf.channelAccess.contention backoffPeriodGenerated:vector ETV
attr interpolationmode none
attr title "backoff periods, vector"
vector 115 NetworkModified.host[4].wlan[0].mac.dcf.channelAccess.contention backoffActive:vector ETV
attr interpolationmode sample-hold
attr source count(backoffStarted)-count(backoffStopped)
attr title "backoff active, vector"
vector 116 NetworkModified.host[7].wlan[0].mac packetReceivedFromLower:vector(packetBytes) ETV
attr interpolationmode none
attr title "packets received from lower layer, vector(packetBytes)"
vector 117 NetworkModified.host[7].wlan[0].mac.rx nav:vector ETV
attr interpolationmode linear
attr source navChanged
attr title "network allocation vector, vector"
vector 118 NetworkModified.host[7].wlan[0].mac.dcf packetDrop:vector(packetBytes) ETV
attr interpolationmode none
attr source packetDropped
attr title "packet drops, vector(packetBytes)"
vector 119 NetworkModified.host[7].wlan[0].mac.dcf packetDropNotAddressedToUs:vector(packetBytes) ETV
attr interpolationmode none
attr source packetDropReasonIsNotAddressedToUs(packetDropped)
attr title "packet drops: not addressed to us, vector(packetBytes)"
vector 120 NetworkModified.host[7].wlan[0].mac packetDrop:vector(packetBytes) ETV
attr interpolationmode none
attr source packetDropped
attr title "packet drops, vector(packetBytes)"
vector 121 NetworkModified.host[7].wlan[0].mac packetDropNotAddressedToUs:vector(packetBytes) ETV
attr interpolationmode none
attr source packetDropReasonIsNotAddressedToUs(packetDropped)
attr title "packet drops: not addressed to us, vector(packetBytes)"
vector 122 NetworkModified.host[4].wlan[0].mac packetSentToLower:vector(packetBytes) ETV
attr interpolationmode none
attr title "packets sent to lower layer, vector(packetBytes)"
vector 123 NetworkModified.host[4].wlan[0].radio transmissionState:vector ETV
attr interpolationmode sample-hold
attr source transmissionStateChanged
attr title "Radio transmission state, vector"
vector 124 NetworkModified.host[4].wlan[0].mac.dcf packetSentToPeer:vector(packetBytes) ETV
attr interpolationmode none
attr title "packets sent, vector(packetBytes)"
vector 125 NetworkModified.host[4].wlan[0].mac.dcf packetSentToPeerUnicast:vector(packetBytes) ETV
attr interpolationmode none
attr source ieee80211Unicast(packetSentToPeer)
attr title "packets sent: unicast, vector(packetBytes)"
vector 126 NetworkModified.host[4].wlan[0].mac.dcf packetSentToPeerWithoutRetry:vector(packetBytes) ETV
attr interpolationmode none
attr source ieee80211NotRetry(packetSentToPeer)
attr title "packets sent: without retry, vector(packetBytes)"
vector 127 NetworkModified.host[5].wlan[0].mac packetReceivedFromLower:vector(packetBytes) ETV
attr interpolationmode none
attr title "packets received from lower layer, vector(packetBytes)"
vector 128 NetworkModified.host[5].wlan[0].mac.dcf packetDrop:vector(packetBytes) ETV
attr interpolationmode none
attr source packetDropped
attr title "packet drops, vector(packetBytes)"
vector 129 NetworkModified.host[5].wlan[0].mac.dcf packetDropNotAddressedToUs:vector(packetBytes) ETV
attr interpolationmode none
attr source packetDropReasonIsNotAddressedToUs(packetDropped)
attr title "packet drops: not addressed to us, vector(packetBytes)"
vector 130 NetworkModified.host[5].wlan[0].mac packetDrop:vector(packetBytes) ETV
attr interpolationmode none
attr source packetDropped
attr title "packet drops, vector(packetBytes)"
vector 131 NetworkModified.host[5].wlan[0].mac packetDropNotAddressedToUs:vector(packetBytes) ETV
attr interpolationmode none
attr source packetDropReasonIsNotAddressedToUs(packetDropped)
attr title "packet drops: not addressed to us, vector(packetBytes)"
vector 132 NetworkModified.host[0].wlan[0].mac packetReceivedFromLower:vector(packetBytes) ETV
attr interpolationmode none
attr title "packets received from lower layer, vector(packetBytes)"
vector 133 NetworkModified.host[0].wlan[0].mac.dcf packetReceivedFromPeer:vector(packetBytes) ETV
attr interpolationmode none
attr title "packets received, vector(packetBytes)"
vector 134 NetworkModified.host[0].wlan[0].mac.dcf packetReceivedFromPeerUnicast:vector(packetBytes) ETV
attr interpolationmode none
attr source ieee80211Unicast(packetReceivedFromPeer)
attr title "packets received: unicast, vector(packetBytes)"
vector 135 NetworkModified.host[0].wlan[0].mac.dcf packetReceivedFromPeerWithoutRetry:vector(packetBytes) ETV
attr interpolationmode none
attr source ieee80211NotRetry(packetReceivedFromPeer)
attr title "packets received: without retry, vector(packetBytes)"
vector 136 NetworkModified.host[0].wlan[0].mac.dcf.channelAccess.inProgressFrames queueingTime:vector ETV
attr interpolationmode none
attr source queueingTime(packetDequeued)
attr title "queueing times, vector"
vector 137 NetworkModified.host[4].wlan[0].mac.dcf.channelAccess.pendingQueue packetPopped:vector(packetBytes) ETV
attr interpolationmode none
attr title "packet popped, vector(packetBytes)"
vector 138 NetworkModified.host[4].wlan[0].mac.dcf.channelAccess.pendingQueue queueingTime:vector ETV
attr interpolationmode none
attr source queueingTime(packetPopped)
attr title "queueing times, vector"
attr unit s
vector 139 NetworkModified.host[4].wlan[0].mac.dcf.channelAccess.inProgressFrames queueLength:vector ETV
attr interpolationmode sample-hold
attr source "count(packetEnqueued) - count(packetDequeued)"
attr title "queue length, vector"
vector 140 NetworkModified.host[4].wlan[0].mac.dcf frameSequenceActive:vector ETV
attr interpolationmode sample-hold
attr source count(frameSequenceStarted)-count(frameSequenceFinished)
attr title "frame sequence active, vector"
vector 141 NetworkModified.host[4].wlan[0].mac.rx nav:vector ETV
attr interpolationmode linear
attr source navChanged
attr title "network allocation vector, vector"
vector 142 NetworkModified.host[5].wlan[0].mac.dcf packetReceivedFromPeer:vector(packetBytes) ETV
attr interpolationmode none
attr title "packets received, vector(packetBytes)"
vector 143 NetworkModified.host[5].wlan[0].mac.dcf packetReceivedFromPeerUnicast:vector(packetBytes) ETV
attr interpolationmode none
attr source ieee80211Unicast(packetReceivedFromPeer)
attr title "packets received: unicast, vector(packetBytes)"
vector 144 NetworkModified.host[5].wlan[0].mac.dcf packetReceivedFromPeerWithoutRetry:vector(packetBytes) ETV
attr interpolationmode none
attr source ieee80211NotRetry(packetReceivedFromPeer)
attr title "packets received: without retry, vector(packetBytes)"
vector 145 NetworkModified.host[5].wlan[0].mac.dcf datarateSelected:vector ETV
attr interpolationmode none
attr title "datarates selected, vector"
vector 146 NetworkModified.host[5].wlan[0].mac packetSentToUpper:vector(packetBytes) ETV
attr interpolationmode none
attr title "packets sent to upper layer, vector(packetBytes)"
vector 147 NetworkModified.host[5].wlan[0].mac packetReceivedFromUpper:vector(packetBytes) ETV
attr interpolationmode none
attr title "packets received from upper layer, vector(packetBytes)"
vector 148 NetworkModified.host[5].wlan[0].mac.dcf.channelAccess.pendingQueue packetPushed:vector(packetBytes) ETV
attr interpolationmode none
attr title "packet pushed, vector(packetBytes)"
vector 149 NetworkModified.host[5].wlan[0].mac.dcf.channelAccess.pendingQueue queueLength:vector ETV
attr interpolationmode sample-hold
attr source "count(packetPushed) - count(packetPopped) - count(packetRemoved) - count(packetDropped)"
attr title "queue length, vector"
vector 150 NetworkModified.host[5].wlan[0].mac.dcf.channelAccess.contention backoffPeriodGenerated:vector ETV
attr interpolationmode none
attr title "backoff periods, vector"
vector 151 NetworkModified.host[5].wlan[0].mac.dcf.channelAccess.contention backoffActive:vector ETV
attr interpolationmode sample-hold
attr source count(backoffStarted)-count(backoffStopped)
attr title "backoff active, vector"
vector 152 NetworkModified.host[0].wlan[0].mac.dcf packetDrop:vector(packetBytes) ETV
attr interpolationmode none
attr source packetDropped
attr title "packet drops, vector(packetBytes)"
vector 153 NetworkModified.host[0].wlan[0].mac.dcf packetDropNotAddressedToUs:vector(packetBytes) ETV
attr interpolationmode none
attr source packetDropReasonIsNotAddressedToUs(packetDropped)
attr title "packet drops: not addressed to us, vector(packetBytes)"
vector 154 NetworkModified.host[0].wlan[0].mac packetDrop:vector(packetBytes) ETV
attr interpolationmode none
attr source packetDropped
attr title "packet drops, vector(packetBytes)"
vector 155 NetworkModified.host[0].wlan[0].mac packetDropNotAddressedToUs:vector(packetBytes) ETV
attr interpolationmode none
attr source packetDropReasonIsNotAddressedToUs(packetDropped)
attr title "packet drops: not addressed to us, vector(packetBytes)"
vector 156 NetworkModified.host[5].wlan[0].mac packetSentToLower:vector(packetBytes) ETV
attr interpolationmode none
attr title "packets sent to lower layer, vector(packetBytes)"
vector 157 NetworkModified.host[5].wlan[0].radio transmissionState:vector ETV
attr interpolationmode sample-hold
attr source transmissionStateChanged
attr title "Radio transmission state, vector"
vector 158 NetworkModified.host[5].wlan[0].mac.dcf packetSentToPeer:vector(packetBytes) ETV
attr interpolationmode none
attr title "packets sent, vector(packetBytes)"
vector 159 NetworkModified.host[5].wlan[0].mac.dcf packetSentToPeerUnicast:vector(packetBytes) ETV
attr interpolationmode none
attr source ieee80211Unicast(packetSentToPeer)
attr title "packets sent: unicast, vector(packetBytes)"
vector 160 NetworkModified.host[5].wlan[0].mac.dcf packetSentToPeerWithoutRetry:vector(packetBytes) ETV
attr interpolationmode none
attr source ieee80211NotRetry(packetSentToPeer)
attr title "packets sent: without retry, vector(packetBytes)"
vector 161 NetworkModified.host[4].wlan[0].mac.dcf packetReceivedFromPeerWithoutRetry:vector(packetBytes) ETV
attr interpolationmode none
attr source ieee80211NotRetry(packetReceivedFromPeer)
attr title "packets received: without retry, vector(packetBytes)"
vector 162 NetworkModified.host[4].wlan[0].mac.dcf.channelAccess.inProgressFrames queueingTime:vector ETV
attr interpolationmode none
attr source queueingTime(packetDequeued)
attr title "queueing times, vector"
vector 163 NetworkModified.host[5].wlan[0].mac.dcf.channelAccess.pendingQueue packetPopped:vector(packetBytes) ETV
attr interpolationmode none
attr title "packet popped, vector(packetBytes)"
vector 164 NetworkModified.host[5].wlan[0].mac.dcf.channelAccess.pendingQueue queueingTime:vector ETV
attr interpolationmode none
attr source queueingTime(packetPopped)
attr title "queueing times, vector"
attr unit s
vector 165 NetworkModified.host[5].wlan[0].mac.dcf.channelAccess.inProgressFrames queueLength:vector ETV
attr interpolationmode sample-hold
attr source "count(packetEnqueued) - count(packetDequeued)"
attr title "queue length, vector"
vector 166 NetworkModified.host[5].wlan[0].mac.dcf frameSequenceActive:vector ETV
attr interpolationmode sample-hold
attr source count(frameSequenceStarted)-count(frameSequenceFinished)
attr title "frame sequence active, vector"
vector 167 NetworkModified.host[5].wlan[0].mac.rx nav:vector ETV
attr interpolationmode linear
attr source navChanged
attr title "network allocation vector, vector"
vector 168 NetworkModified.host[4].wlan[0].mac.dcf packetDrop:vector(packetBytes) ETV
attr interpolationmode none
attr source packetDropped
attr title "packet drops, vector(packetBytes)"
vector 169 NetworkModified.host[4].wlan[0].mac.dcf packetDropNotAddressedToUs:vector(packetBytes) ETV
attr interpolationmode none
attr source packetDropReasonIsNotAddressedToUs(packetDropped)
attr title "packet drops: not addressed to us, vector(packetBytes)"
vector 170 NetworkModified.host[4].wlan[0].mac packetDrop:vector(packetBytes) ETV
attr interpolationmode none
attr source packetDropped
attr title "packet drops, vector(packetBytes)"
vector 171 NetworkModified.host[4].wlan[0].mac packetDropNotAddressedToUs:vector(packetBytes) ETV
attr interpolationmode none
attr source packetDropReasonIsNotAddressedToUs(packetDropped)
attr title "packet drops: not addressed to us, vector(packetBytes)"
vector 172 NetworkModified.host[6].wlan[0].mac.dcf packetReceivedFromPeer:vector(packetBytes) ETV
attr interpolationmode none
attr title "packets received, vector(packetBytes)"
vector 173 NetworkModified.host[6].wlan[0].mac.dcf packetReceivedFromPeerUnicast:vector(packetBytes) ETV
attr interpolationmode none
attr source ieee80211Unicast(packetReceivedFromPeer)
attr title "packets received: unicast, vector(packetBytes)"
vector 174 NetworkModified.host[6].wlan[0].mac.dcf packetReceivedFromPeerWithoutRetry:vector(packetBytes) ETV
attr interpolationmode none
attr source ieee80211NotRetry(packetReceivedFromPeer)
attr title "packets received: without retry, vector(packetBytes)"
vector 175 NetworkModified.host[6].wlan[0].mac.dcf datarateSelected:vector ETV
attr interpolationmode none
attr title "datarates selected, vector"
vector 176 NetworkModified.host[6].wlan[0].mac packetSentToUpper:vector(packetBytes) ETV
attr interpolationmode none
attr title "packets sent to upper layer, vector(packetBytes)"
vector 177 NetworkModified.host[6].wlan[0].mac packetReceivedFromUpper:vector(packetBytes) ETV
attr interpolationmode none
attr title "packets received from upper layer, vector(packetBytes)"
vector 178 NetworkModified.host[6].wlan[0].mac.dcf.channelAccess.pendingQueue packetPushed:vector(packetBytes) ETV
attr interpolationmode none
attr title "packet pushed, vector(packetBytes)"
vector 179 NetworkModified.host[6].wlan[0].mac.dcf.channelAccess.pendingQueue queueLength:vector ETV
attr interpolationmode sample-hold
attr source "count(packetPushed) - count(packetPopped) - count(packetRemoved) - count(packetDropped)"
attr title "queue length, vector"
vector 180 NetworkModified.host[6].wlan[0].mac.dcf.channelAccess.contention backoffPeriodGenerated:vector ETV
attr interpolationmode none
attr title "backoff periods, vector"
vector 181 NetworkModified.host[6].wlan[0].mac.dcf.channelAccess.contention backoffActive:vector ETV
attr interpolationmode sample-hold
attr source count(backoffStarted)-count(backoffStopped)
attr title "backoff active, vector"
vector 182 NetworkModified.host[1].wlan[0].mac packetReceivedFromLower:vector(packetBytes) ETV
attr interpolationmode none
attr title "packets received from lower layer, vector(packetBytes)"
vector 183 NetworkModified.host[1].wlan[0].mac.rx nav:vector ETV
attr interpolationmode linear
attr source navChanged
attr title "network allocation vector, vector"
vector 184 NetworkModified.host[1].wlan[0].mac.dcf packetDrop:vector(packetBytes) ETV
attr interpolationmode none
attr source packetDropped
attr title "packet drops, vector(packetBytes)"
vector 185 NetworkModified.host[1].wlan[0].mac.dcf packetDropNotAddressedToUs:vector(packetBytes) ETV
attr interpolationmode none
attr source packetDropReasonIsNotAddressedToUs(packetDropped)
attr title "packet drops: not addressed to us, vector(packetBytes)"
vector 186 NetworkModified.host[1].wlan[0].mac packetDrop:vector(packetBytes) ETV
attr interpolationmode none
attr source packetDropped
attr title "packet drops, vector(packetBytes)"
vector 187 NetworkModified.host[1].wlan[0].mac packetDropNotAddressedToUs:vector(packetBytes) ETV
attr interpolationmode none
attr source packetDropReasonIsNotAddressedToUs(packetDropped)
attr title "packet drops: not addressed to us, vector(packetBytes)"
vector 188 NetworkModified.host[6].wlan[0].mac packetSentToLower:vector(packetBytes) ETV
attr interpolationmode none
attr title "packets sent to lower layer, vector(packetBytes)"
vector 189 NetworkModified.host[6].wlan[0].radio transmissionState:vector ETV
attr interpolationmode sample-hold
attr source transmissionStateChanged
attr title "Radio transmission state, vector"
vector 190 NetworkModified.host[6].wlan[0].mac.dcf packetSentToPeer:vector(packetBytes) ETV
attr interpolationmode none
attr title "packets sent, vector(packetBytes)"
vector 191 NetworkModified.host[6].wlan[0].mac.dcf packetSentToPeerUnicast:vector(packetBytes) ETV
attr interpolationmode none
attr source ieee80211Unicast(packetSentToPeer)
attr title "packets sent: unicast, vector(packetBytes)"
vector 192 NetworkModified.host[6].wlan[0].mac.dcf packetSentToPeerWithoutRetry:vector(packetBytes) ETV
attr interpolationmode none
attr source ieee80211NotRetry(packetSentToPeer)
attr title "packets sent: without retry, vector(packetBytes)"
vector 193 NetworkModified.host[5].wlan[0].mac.dcf.channelAccess.inProgressFrames queueingTime:vector ETV
attr interpolationmode none
attr source queueingTime(packetDequeued)
attr title "queueing times, vector"
vector 194 NetworkModified.host[16].wlan[0].mac packetReceivedFromLower:vector(packetBytes) ETV
attr interpolationmode none
attr title "packets received from lower layer, vector(packetBytes)"
vector 195 NetworkModified.host[16].wlan[0].mac.dcf packetDrop:vector(packetBytes) ETV
attr interpolationmode none
attr source packetDropped
attr title "packet drops, vector(packetBytes)"
vector 196 NetworkModified.host[16].wlan[0].mac.dcf packetDropNotAddressedToUs:vector(packetBytes) ETV
attr interpolationmode none
attr source packetDropReasonIsNotAddressedToUs(packetDropped)
attr title "packet drops: not addressed to us, vector(packetBytes)"
vector 197 NetworkModified.host[16].wlan[0].mac packetDrop:vector(packetBytes) ETV
attr interpolationmode none
attr source packetDropped
attr title "packet drops, vector(packetBytes)"
vector 198 NetworkModified.host[16].wlan[0].mac packetDropNotAddressedToUs:vector(packetBytes) ETV
attr interpolationmode none
attr source packetDropReasonIsNotAddressedToUs(packetDropped)
attr title "packet drops: not addressed to us, vector(packetBytes)"
vector 199 NetworkModified.host[6].wlan[0].mac.dcf.channelAccess.pendingQueue packetPopped:vector(packetBytes) ETV
attr interpolationmode none
attr title "packet popped, vector(packetBytes)"
vector 200 NetworkModified.host[6].wlan[0].mac.dcf.channelAccess.pendingQueue queueingTime:vector ETV
attr interpolationmode none
attr source queueingTime(packetPopped)
attr title "queueing times, vector"
attr unit s
vector 201 NetworkModified.host[6].wlan[0].mac.dcf.channelAccess.inProgressFrames queueLength:vector ETV
attr interpolationmode sample-hold
attr source "count(packetEnqueued) - count(packetDequeued)"
attr title "queue length, vector"
vector 202 NetworkModified.host[6].wlan[0].mac.dcf frameSequenceActive:vector ETV
attr interpolationmode sample-hold
attr source count(frameSequenceStarted)-count(frameSequenceFinished)
attr title "frame sequence active, vector"
vector 203 NetworkModified.host[16].wlan[0].mac.dcf packetReceivedFromPeer:vector(packetBytes) ETV
attr interpolationmode none
attr title "packets received, vector(packetBytes)"
vector 204 NetworkModified.host[16].wlan[0].mac.dcf packetReceivedFromPeerUnicast:vector(packetBytes) ETV
attr interpolationmode none
attr source ieee80211Unicast(packetReceivedFromPeer)
attr title "packets received: unicast, vector(packetBytes)"
vector 205 NetworkModified.host[16].wlan[0].mac.dcf packetReceivedFromPeerWithoutRetry:vector(packetBytes) ETV
attr interpolationmode none
attr source ieee80211NotRetry(packetReceivedFromPeer)
attr title "packets received: without retry, vector(packetBytes)"
vector 206 NetworkModified.host[16].wlan[0].mac.dcf datarateSelected:vector ETV
attr interpolationmode none
attr title "datarates selected, vector"
vector 207 NetworkModified.host[16].wlan[0].mac packetSentToUpper:vector(packetBytes) ETV
attr interpolationmode none
attr title "packets sent to upper layer, vector(packetBytes)"
vector 208 NetworkModified.host[16].udp packetReceived:vector(packetBytes) ETV
attr interpolationmode none
attr source packetReceived
attr title "packets received, vector(packetBytes)"
vector 209 NetworkModified.host[16].udp passedUpPk:vector(count) ETV
attr interpolationmode none
attr source packetSentToUpper
attr title "packets passed up, vector(count)"
vector 210 NetworkModified.host[16].app[0] packetReceived:vector(packetBytes) ETV
attr interpolationmode none
attr source packetReceived
attr title "packets received, vector(packetBytes)"
vector 211 NetworkModified.host[16].app[0] endToEndDelay:vector ETV
attr interpolationmode none
attr source dataAge(packetReceived)
attr title "end-to-end delay, vector"
attr unit s
vector 212 NetworkModified.host[16].app[0] rcvdPkSeqNo:vector ETV
attr interpolationmode none
attr source appPkSeqNo(packetReceived)
attr title "received packet sequence number, vector"
vector 213 NetworkModified.host[16].wlan[0].mac packetSentToLower:vector(packetBytes) ETV
attr interpolationmode none
attr title "packets sent to lower layer, vector(packetBytes)"
vector 214 NetworkModified.host[16].wlan[0].radio transmissionState:vector ETV
attr interpolationmode sample-hold
attr source transmissionStateChanged
attr title "Radio transmission state, vector"
vector 215 NetworkModified.host[16].wlan[0].mac.dcf packetSentToPeer:vector(packetBytes) ETV
attr interpolationmode none
attr title "packets sent, vector(packetBytes)"
vector 216 NetworkModified.host[16].wlan[0].mac.dcf packetSentToPeerUnicast:vector(packetBytes) ETV
attr interpolationmode none
attr source ieee80211Unicast(packetSentToPeer)
attr title "packets sent: unicast, vector(packetBytes)"
vector 217 NetworkModified.host[16].wlan[0].mac.dcf packetSentToPeerWithoutRetry:vector(packetBytes) ETV
attr interpolationmode none
attr source ieee80211NotRetry(packetSentToPeer)
attr title "packets sent: without retry, vector(packetBytes)"
vector 218 NetworkModified.host[6].wlan[0].mac.dcf.channelAccess.inProgressFrames queueingTime:vector ETV
attr interpolationmode none
attr source queueingTime(packetDequeued)
attr title "queueing times, vector"
vector 219 NetworkModified.host[17].wlan[0].mac packetReceivedFromLower:vector(packetBytes) ETV
attr interpolationmode none
attr title "packets received from lower layer, vector(packetBytes)"
vector 220 NetworkModified.host[17].wlan[0].mac.dcf packetDrop:vector(packetBytes) ETV
attr interpolationmode none
attr source packetDropped
attr title "packet drops, vector(packetBytes)"
vector 221 NetworkModified.host[17].wlan[0].mac.dcf packetDropNotAddressedToUs:vector(packetBytes) ETV
attr interpolationmode none
attr source packetDropReasonIsNotAddressedToUs(packetDropped)
attr title "packet drops: not addressed to us, vector(packetBytes)"
vector 222 NetworkModified.host[17].wlan[0].mac packetDrop:vector(packetBytes) ETV
attr interpolationmode none
attr source packetDropped
attr title "packet drops, vector(packetBytes)"
vector 223 NetworkModified.host[17].wlan[0].mac packetDropNotAddressedToUs:vector(packetBytes) ETV
attr interpolationmode none
attr source packetDropReasonIsNotAddressedToUs(packetDropped)
attr title "packet drops: not addressed to us, vector(packetBytes)"
vector 224 NetworkModified.host[1].app[0] packetSent:vector(packetBytes) ETV
attr interpolationmode none
attr source packetSent
attr title "packets sent, vector(packetBytes)"
vector 225 NetworkModified.host[1].udp packetSent:vector(packetBytes) ETV
attr interpolationmode none
attr source packetSent
attr title "packets sent, vector(packetBytes)"
vector 226 NetworkModified.host[1].wlan[0].mac packetReceivedFromUpper:vector(packetBytes) ETV
attr interpolationmode none
attr title "packets received from upper layer, vector(packetBytes)"
vector 227 NetworkModified.host[1].wlan[0].mac.dcf.channelAccess.pendingQueue packetPushed:vector(packetBytes) ETV
attr interpolationmode none
attr title "packet pushed, vector(packetBytes)"
vector 228 NetworkModified.host[1].wlan[0].mac.dcf.channelAccess.pendingQueue queueLength:vector ETV
attr interpolationmode sample-hold
attr source "count(packetPushed) - count(packetPopped) - count(packetRemoved) - count(packetDropped)"
attr title "queue length, vector"
vector 229 NetworkModified.host[1].wlan[0].mac.dcf.channelAccess.contention backoffPeriodGenerated:vector ETV
attr interpolationmode none
attr title "backoff periods, vector"
vector 230 NetworkModified.host[1].wlan[0].mac.dcf.channelAccess.contention backoffActive:vector ETV
attr interpolationmode sample-hold
attr source count(backoffStarted)-count(backoffStopped)
attr title "backoff active, vector"
vector 231 NetworkModified.host[1].wlan[0].mac.dcf.channelAccess.pendingQueue packetPopped:vector(packetBytes) ETV
attr interpolationmode none
attr title "packet popped, vector(packetBytes)"
vector 232 NetworkModified.host[1].wlan[0].mac.dcf.channelAccess.pendingQueue queueingTime:vector ETV
attr interpolationmode none
attr source queueingTime(packetPopped)
attr title "queueing times, vector"
attr unit s
vector 233 NetworkModified.host[1].wlan[0].mac.dcf.channelAccess.inProgressFrames queueLength:vector ETV
attr interpolationmode sample-hold
attr source "count(packetEnqueued) - count(packetDequeued)"
attr title "queue length, vector"
vector 234 NetworkModified.host[1].wlan[0].mac.dcf datarateSelected:vector ETV
attr interpolationmode none
attr title "datarates selected, vector"
vector 235 NetworkModified.host[1].wlan[0].mac packetSentToLower:vector(packetBytes) ETV
attr interpolationmode none
attr title "packets sent to lower layer, vector(packetBytes)"
vector 236 NetworkModified.host[1].wlan[0].mac.dcf frameSequenceActive:vector ETV
attr interpolationmode sample-hold
attr source count(frameSequenceStarted)-count(frameSequenceFinished)
attr title "frame sequence active, vector"
vector 237 NetworkModified.host[1].wlan[0].radio transmissionState:vector ETV
attr interpolationmode sample-hold
attr source transmissionStateChanged
attr title "Radio transmission state, vector"
vector 238 NetworkModified.host[3].app[0] packetSent:vector(packetBytes) ETV
attr interpolationmode none
attr source packetSent
attr title "packets sent, vector(packetBytes)"
vector 239 NetworkModified.host[3].udp packetSent:vector(packetBytes) ETV
attr interpolationmode none
attr source packetSent
attr title "packets sent, vector(packetBytes)"
vector 240 NetworkModified.host[3].wlan[0].mac packetReceivedFromUpper:vector(packetBytes) ETV
attr interpolationmode none
attr title "packets received from upper layer, vector(packetBytes)"
vector 241 NetworkModified.host[3].wlan[0].mac.dcf.channelAccess.pendingQueue packetPushed:vector(packetBytes) ETV
attr interpolationmode none
attr title "packet pushed, vector(packetBytes)"
vector 242 NetworkModified.host[3].wlan[0].mac.dcf.channelAccess.pendingQueue queueLength:vector ETV
attr interpolationmode sample-hold
attr source "count(packetPushed) - count(packetPopped) - count(packetRemoved) - count(packetDropped)"
attr title "queue length, vector"
vector 243 NetworkModified.host[3].wlan[0].mac.dcf.channelAccess.contention backoffPeriodGenerated:vector ETV
attr interpolationmode none
attr title "backoff periods, vector"
vector 244 NetworkModified.host[3].wlan[0].mac.dcf.channelAccess.contention backoffActive:vector ETV
attr interpolationmode sample-hold
attr source count(backoffStarted)-count(backoffStopped)
attr title "backoff active, vector"
vector 245 NetworkModified.host[3].wlan[0].mac.dcf.channelAccess.pendingQueue packetPopped:vector(packetBytes) ETV
attr interpolationmode none
attr title "packet popped, vector(packetBytes)"
vector 246 NetworkModified.host[3].wlan[0].mac.dcf.channelAccess.pendingQueue queueingTime:vector ETV
attr interpolationmode none
attr source queueingTime(packetPopped)
attr title "queueing times, vector"
attr unit s
vector 247 NetworkModified.host[3].wlan[0].mac.dcf.channelAccess.inProgressFrames queueLength:vector ETV
attr interpolationmode sample-hold
attr source "count(packetEnqueued) - count(packetDequeued)"
attr title "queue length, vector"
vector 248 NetworkModified.host[3].wlan[0].mac.dcf datarateSelected:vector ETV
attr interpolationmode none
attr title "datarates selected, vector"
vector 249 NetworkModified.host[3].wlan[0].mac packetSentToLower:vector(packetBytes) ETV
attr interpolationmode none
attr title "packets sent to lower layer, vector(packetBytes)"
vector 250 NetworkModified.host[3].wlan[0].mac.dcf frameSequenceActive:vector ETV
attr interpolationmode sample-hold
attr source count(frameSequenceStarted)-count(frameSequenceFinished)
attr title "frame sequence active, vector"
vector 251 NetworkModified.host[3].wlan[0].radio transmissionState:vector ETV
attr interpolationmode sample-hold
attr source transmissionStateChanged
attr title "Radio transmission state, vector"
vector 252 NetworkModified.host[1].wlan[0].mac.dcf packetSentToPeer:vector(packetBytes) ETV
attr interpolationmode none
attr title "packets sent, vector(packetBytes)"
vector 253 NetworkModified.host[1].wlan[0].mac.dcf packetSentToPeerUnicast:vector(packetBytes) ETV
attr interpolationmode none
attr source ieee80211Unicast(packetSentToPeer)
attr title "packets sent: unicast, vector(packetBytes)"
vector 254 NetworkModified.host[1].wlan[0].mac.dcf packetSentToPeerWithoutRetry:vector(packetBytes) ETV
attr interpolationmode none
attr source ieee80211NotRetry(packetSentToPeer)
attr title "packets sent: without retry, vector(packetBytes)"
vector 255 NetworkModified.host[7].wlan[0].mac.dcf packetReceivedFromPeer:vector(packetBytes) ETV
attr interpolationmode none
attr title "packets received, vector(packetBytes)"
vector 256 NetworkModified.host[7].wlan[0].mac.dcf packetReceivedFromPeerUnicast:vector(packetBytes) ETV
attr interpolationmode none
attr source ieee80211Unicast(packetReceivedFromPeer)
attr title "packets received: unicast, vector(packetBytes)"
vector 257 NetworkModified.host[7].wlan[0].mac.dcf packetReceivedFromPeerWithoutRetry:vector(packetBytes) ETV
attr interpolationmode none
attr source ieee80211NotRetry(packetReceivedFromPeer)
attr title "packets received: without retry, vector(packetBytes)"
vector 258 NetworkModified.host[7].wlan[0].mac.dcf datarateSelected:vector ETV
attr interpolationmode none
attr title "datarates selected, vector"
vector 259 NetworkModified.host[7].wlan[0].mac packetSentToUpper:vector(packetBytes) ETV
attr interpolationmode none
attr title "packets sent to upper layer, vector(packetBytes)"
vector 260 NetworkModified.host[7].wlan[0].mac packetReceivedFromUpper:vector(packetBytes) ETV
attr interpolationmode none
attr title "packets received from upper layer, vector(packetBytes)"
vector 261 NetworkModified.host[7].wlan[0].mac.dcf.channelAccess.pendingQueue packetPushed:vector(packetBytes) ETV
attr interpolationmode none
attr title "packet pushed, vector(packetBytes)"
vector 262 NetworkModified.host[7].wlan[0].mac.dcf.channelAccess.pendingQueue queueLength:vector ETV
attr interpolationmode sample-hold
attr source "count(packetPushed) - count(packetPopped) - count(packetRemoved) - count(packetDropped)"
attr title "queue length, vector"
vector 263 NetworkModified.host[7].wlan[0].mac.dcf.channelAccess.contention backoffPeriodGenerated:vector ETV
attr interpolationmode none
attr title "backoff periods, vector"
vector 264 NetworkModified.host[7].wlan[0].mac.dcf.channelAccess.contention backoffActive:vector ETV
attr interpolationmode sample-hold
attr source count(backoffStarted)-count(backoffStopped)
attr title "backoff active, vector"
vector 265 NetworkModified.host[9].wlan[0].mac packetReceivedFromLower:vector(packetBytes) ETV
attr interpolationmode none
attr title "packets received from lower layer, vector(packetBytes)"
vector 266 NetworkModified.host[9].wlan[0].mac.rx nav:vector ETV
attr interpolationmode linear
attr source navChanged
attr title "network allocation vector, vector"
vector 267 NetworkModified.host[9].wlan[0].mac.dcf packetDrop:vector(packetBytes) ETV
attr interpolationmode none
attr source packetDropped
attr title "packet drops, vector(packetBytes)"
vector 268 NetworkModified.host[9].wlan[0].mac.dcf packetDropNotAddressedToUs:vector(packetBytes) ETV
attr interpolationmode none
attr source packetDropReasonIsNotAddressedToUs(packetDropped)
attr title "packet drops: not addressed to us, vector(packetBytes)"
vector 269 NetworkModified.host[9].wlan[0].mac packetDrop:vector(packetBytes) ETV
attr interpolationmode none
attr source packetDropped
attr title "packet drops, vector(packetBytes)"
vector 270 NetworkModified.host[9].wlan[0].mac packetDropNotAddressedToUs:vector(packetBytes) ETV
attr interpolationmode none
attr source packetDropReasonIsNotAddressedToUs(packetDropped)
attr title "packet drops: not addressed to us, vector(packetBytes)"
vector 271 NetworkModified.host[7].wlan[0].mac packetSentToLower:vector(packetBytes) ETV
attr interpolationmode none
attr title "packets sent to lower layer, vector(packetBytes)"
vector 272 NetworkModified.host[7].wlan[0].radio transmissionState:vector ETV
attr interpolationmode sample-hold
attr source transmissionStateChanged
attr title "Radio transmission state, vector"
vector 273 NetworkModified.host[3].wlan[0].mac.dcf packetSentToPeer:vector(packetBytes) ETV
attr interpolationmode none
attr title "packets sent, vector(packetBytes)"
vector 274 NetworkModified.host[3].wlan[0].mac.dcf packetSentToPeerUnicast:vector(packetBytes) ETV
attr interpolationmode none
attr source ieee80211Unicast(packetSentToPeer)
attr title "packets sent: unicast, vector(packetBytes)"
vector 275 NetworkModified.host[3].wlan[0].mac.dcf packetSentToPeerWithoutRetry:vector(packetBytes) ETV
attr interpolationmode none
attr source ieee80211NotRetry(packetSentToPeer)
attr title "packets sent: without retry, vector(packetBytes)"
vector 276 NetworkModified.host[3].wlan[0].mac.rx nav:vector ETV
attr interpolationmode linear
attr source navChanged
attr title "network allocation vector, vector"
vector 277 NetworkModified.host[13].wlan[0].mac packetReceivedFromLower:vector(packetBytes) ETV
attr interpolationmode none
attr title "packets received from lower layer, vector(packetBytes)"
vector 278 NetworkModified.host[13].wlan[0].mac.dcf packetReceivedFromPeer:vector(packetBytes) ETV
attr interpolationmode none
attr title "packets received, vector(packetBytes)"
vector 279 NetworkModified.host[13].wlan[0].mac.dcf packetReceivedFromPeerUnicast:vector(packetBytes) ETV
attr interpolationmode none
attr source ieee80211Unicast(packetReceivedFromPeer)
attr title "packets received: unicast, vector(packetBytes)"
vector 280 NetworkModified.host[13].wlan[0].mac.dcf packetReceivedFromPeerWithoutRetry:vector(packetBytes) ETV
attr interpolationmode none
attr source ieee80211NotRetry(packetReceivedFromPeer)
attr title "packets received: without retry, vector(packetBytes)"
vector 281 NetworkModified.host[13].wlan[0].mac.dcf datarateSelected:vector ETV
attr interpolationmode none
attr title "datarates selected, vector"
vector 282 NetworkModified.host[13].wlan[0].mac packetSentToUpper:vector(packetBytes) ETV
attr interpolationmode none
attr title "packets sent to upper layer, vector(packetBytes)"
vector 283 NetworkModified.host[13].wlan[0].mac packetReceivedFromUpper:vector(packetBytes) ETV
attr interpolationmode none
attr title "packets received from upper layer, vector(packetBytes)"
vector 284 NetworkModified.host[13].wlan[0].mac.dcf.channelAccess.pendingQueue packetPushed:vector(packetBytes) ETV
attr interpolationmode none
attr title "packet pushed, vector(packetBytes)"
vector 285 NetworkModified.host[13].wlan[0].mac.dcf.channelAccess.pendingQueue queueLength:vector ETV
attr interpolationmode sample-hold
attr source "count(packetPushed) - count(packetPopped) - count(packetRemoved) - count(packetDropped)"
attr title "queue length, vector"
vector 286 NetworkModified.host[13].wlan[0].mac.dcf.channelAccess.contention backoffPeriodGenerated:vector ETV
attr interpolationmode none
attr title "backoff periods, vector"
vector 287 NetworkModified.host[13].wlan[0].mac.dcf.channelAccess.contention backoffActive:vector ETV
attr interpolationmode sample-hold
attr source count(backoffStarted)-count(backoffStopped)
attr title "backoff active, vector"
vector 288 NetworkModified.host[13].wlan[0].mac packetSentToLower:vector(packetBytes) ETV
attr interpolationmode none
attr title "packets sent to lower layer, vector(packetBytes)"
vector 289 NetworkModified.host[13].wlan[0].radio transmissionState:vector ETV
attr interpolationmode sample-hold
attr source transmissionStateChanged
attr title "Radio transmission state, vector"
vector 290 NetworkModified.host[7].wlan[0].mac.dcf packetSentToPeer:vector(packetBytes) ETV
attr interpolationmode none
attr title "packets sent, vector(packetBytes)"
vector 291 NetworkModified.host[7].wlan[0].mac.dcf packetSentToPeerUnicast:vector(packetBytes) ETV
attr interpolationmode none
attr source ieee80211Unicast(packetSentToPeer)
attr title "packets sent: unicast, vector(packetBytes)"
vector 292 NetworkModified.host[7].wlan[0].mac.dcf packetSentToPeerWithoutRetry:vector(packetBytes) ETV
attr interpolationmode none
attr source ieee80211NotRetry(packetSentToPeer)
attr title "packets sent: without retry, vector(packetBytes)"
vector 293 NetworkModified.host[1].wlan[0].mac.dcf packetReceivedFromPeer:vector(packetBytes) ETV
attr interpolationmode none
attr title "packets received, vector(packetBytes)"
vector 294 NetworkModified.host[1].wlan[0].mac.dcf packetReceivedFromPeerUnicast:vector(packetBytes) ETV
attr interpolationmode none
attr source ieee80211Unicast(packetReceivedFromPeer)
attr title "packets received: unicast, vector(packetBytes)"
vector 295 NetworkModified.host[1].wlan[0].mac.dcf packetReceivedFromPeerWithoutRetry:vector(packetBytes) ETV
attr interpolationmode none
attr source ieee80211NotRetry(packetReceivedFromPeer)
attr title "packets received: without retry, vector(packetBytes)"
vector 296 NetworkModified.host[1].wlan[0].mac.dcf.channelAccess.inProgressFrames queueingTime:vector ETV
attr interpolationmode none
attr source queueingTime(packetDequeued)
attr title "queueing times, vector"
vector 297 NetworkModified.host[10].wlan[0].mac packetReceivedFromLower:vector(packetBytes) ETV
attr interpolationmode none
attr title "packets received from lower layer, vector(packetBytes)"
vector 298 NetworkModified.host[10].wlan[0].mac.dcf packetDrop:vector(packetBytes) ETV
attr interpolationmode none
attr source packetDropped
attr title "packet drops, vector(packetBytes)"
vector 299 NetworkModified.host[10].wlan[0].mac.dcf packetDropNotAddressedToUs:vector(packetBytes) ETV
attr interpolationmode none
attr source packetDropReasonIsNotAddressedToUs(packetDropped)
attr title "packet drops: not addressed to us, vector(packetBytes)"
vector 300 NetworkModified.host[10].wlan[0].mac packetDrop:vector(packetBytes) ETV
attr interpolationmode none
attr source packetDropped
attr title "packet drops, vector(packetBytes)"
vector 301 NetworkModified.host[10].wlan[0].mac packetDropNotAddressedToUs:vector(packetBytes) ETV
attr interpolationmode none
attr source packetDropReasonIsNotAddressedToUs(packetDropped)
attr title "packet drops: not addressed to us, vector(packetBytes)"
vector 302 NetworkModified.host[2].app[0] packetSent:vector(packetBytes) ETV
attr interpolationmode none
attr source packetSent
attr title "packets sent, vector(packetBytes)"
vector 303 NetworkModified.host[2].udp packetSent:vector(packetBytes) ETV
attr interpolationmode none
attr source packetSent
attr title "packets sent, vector(packetBytes)"
vector 304 NetworkModified.host[2].wlan[0].mac packetReceivedFromUpper:vector(packetBytes) ETV
attr interpolationmode none
attr title "packets received from upper layer, vector(packetBytes)"
vector 305 NetworkModified.host[2].wlan[0].mac.dcf.channelAccess.pendingQueue packetPushed:vector(packetBytes) ETV
attr interpolationmode none
attr title "packet pushed, vector(packetBytes)"
vector 306 NetworkModified.host[2].wlan[0].mac.dcf.channelAccess.pendingQueue queueLength:vector ETV
attr interpolationmode sample-hold
attr source "count(packetPushed) - count(packetPopped) - count(packetRemoved) - count(packetDropped)"
attr title "queue length, vector"
vector 307 NetworkModified.host[2].wlan[0].mac.dcf.channelAccess.contention backoffPeriodGenerated:vector ETV
attr interpolationmode none
attr title "backoff periods, vector"
vector 308 NetworkModified.host[2].wlan[0].mac.dcf.channelAccess.contention backoffActive:vector ETV
attr interpolationmode sample-hold
attr source count(backoffStarted)-count(backoffStopped)
attr title "backoff active, vector"
vector 309 NetworkModified.host[2].wlan[0].mac.dcf.channelAccess.pendingQueue packetPopped:vector(packetBytes) ETV
attr interpolationmode none
attr title "packet popped, vector(packetBytes)"
vector 310 NetworkModified.host[2].wlan[0].mac.dcf.channelAccess.pendingQueue queueingTime:vector ETV
attr interpolationmode none
attr source queueingTime(packetPopped)
attr title "queueing times, vector"
attr unit s
vector 311 NetworkModified.host[2].wlan[0].mac.dcf.channelAccess.inProgressFrames queueLength:vector ETV
attr interpolationmode sample-hold
attr source "count(packetEnqueued) - count(packetDequeued)"
attr title "queue length, vector"
vector 312 NetworkModified.host[2].wlan[0].mac.dcf datarateSelected:vector ETV
attr interpolationmode none
attr title "datarates selected, vector"
vector 313 NetworkModified.host[2].wlan[0].mac packetSentToLower:vector(packetBytes) ETV
attr interpolationmode none
attr title "packets sent to lower layer, vector(packetBytes)"
vector 314 NetworkModified.host[2].wlan[0].mac.dcf frameSequenceActive:vector ETV
attr interpolationmode sample-hold
attr source count(frameSequenceStarted)-count(frameSequenceFinished)
attr title "frame sequence active, vector"
vector 315 NetworkModified.host[2].wlan[0].radio transmissionState:vector ETV
attr interpolationmode sample-hold
attr source transmissionStateChanged
attr title "Radio transmission state, vector"
vector 316 NetworkModified.host[13].wlan[0].mac.dcf packetSentToPeer:vector(packetBytes) ETV
attr interpolationmode none
attr title "packets sent, vector(packetBytes)"
vector 317 NetworkModified.host[13].wlan[0].mac.dcf packetSentToPeerUnicast:vector(packetBytes) ETV
attr interpolationmode none
attr source ieee80211Unicast(packetSentToPeer)
attr title "packets sent: unicast, vector(packetBytes)"
vector 318 NetworkModified.host[13].wlan[0].mac.dcf packetSentToPeerWithoutRetry:vector(packetBytes) ETV
attr interpolationmode none
attr source ieee80211NotRetry(packetSentToPeer)
attr title "packets sent: without retry, vector(packetBytes)"
vector 319 NetworkModified.host[14].wlan[0].mac packetReceivedFromLower:vector(packetBytes) ETV
attr interpolationmode none
attr title "packets received from lower layer, vector(packetBytes)"
vector 320 NetworkModified.host[14].wlan[0].mac.dcf packetDrop:vector(packetBytes) ETV
attr interpolationmode none
attr source packetDropped
attr title "packet drops, vector(packetBytes)"
vector 321 NetworkModified.host[14].wlan[0].mac.dcf packetDropNotAddressedToUs:vector(packetBytes) ETV
attr interpolationmode none
attr source packetDropReasonIsNotAddressedToUs(packetDropped)
attr title "packet drops: not addressed to us, vector(packetBytes)"
vector 322 NetworkModified.host[14].wlan[0].mac packetDrop:vector(packetBytes) ETV
attr interpolationmode none
attr source packetDropped
attr title "packet drops, vector(packetBytes)"
vector 323 NetworkModified.host[14].wlan[0].mac packetDropNotAddressedToUs:vector(packetBytes) ETV
attr interpolationmode none
attr source packetDropReasonIsNotAddressedToUs(packetDropped)
attr title "packet drops: not addressed to us, vector(packetBytes)"
vector 324 NetworkModified.host[3].wlan[0].mac packetReceivedFromLower:vector(packetBytes) ETV
attr interpolationmode none
attr title "packets received from lower layer, vector(packetBytes)"
vector 325 NetworkModified.host[3].wlan[0].mac.dcf packetReceivedFromPeer:vector(packetBytes) ETV
attr interpolationmode none
attr title "packets received, vector(packetBytes)"
vector 326 NetworkModified.host[3].wlan[0].mac.dcf packetReceivedFromPeerUnicast:vector(packetBytes) ETV
attr interpolationmode none
attr source ieee80211Unicast(packetReceivedFromPeer)
attr title "packets received: unicast, vector(packetBytes)"
vector 327 NetworkModified.host[3].wlan[0].mac.dcf packetReceivedFromPeerWithoutRetry:vector(packetBytes) ETV
attr interpolationmode none
attr source ieee80211NotRetry(packetReceivedFromPeer)
attr title "packets received: without retry, vector(packetBytes)"
vector 328 NetworkModified.host[3].wlan[0].mac.dcf.channelAccess.inProgressFrames queueingTime:vector ETV
attr interpolationmode none
attr source queueingTime(packetDequeued)
attr title "queueing times, vector"
vector 329 NetworkModified.host[19].wlan[0].mac packetReceivedFromLower:vector(packetBytes) ETV
attr interpolationmode none
attr title "packets received from lower layer, vector(packetBytes)"
vector 330 NetworkModified.host[19].wlan[0].mac.dcf packetDrop:vector(packetBytes) ETV
attr interpolationmode none
attr source packetDropped
attr title "packet drops, vector(packetBytes)"
vector 331 NetworkModified.host[19].wlan[0].mac.dcf packetDropNotAddressedToUs:vector(packetBytes) ETV
attr interpolationmode none
attr source packetDropReasonIsNotAddressedToUs(packetDropped)
attr title "packet drops: not addressed to us, vector(packetBytes)"
vector 332 NetworkModified.host[19].wlan[0].mac packetDrop:vector(packetBytes) ETV
attr interpolationmode none
attr source packetDropped
attr title "packet drops, vector(packetBytes)"
vector 333 NetworkModified.host[19].wlan[0].mac packetDropNotAddressedToUs:vector(packetBytes) ETV
attr interpolationmode none
attr source packetDropReasonIsNotAddressedToUs(packetDropped)
attr title "packet drops: not addressed to us, vector(packetBytes)"
vector 334 NetworkModified.host[11].wlan[0].mac packetReceivedFromLower:vector(packetBytes) ETV
attr interpolationmode none
attr title "packets received from lower layer, vector(packetBytes)"
vector 335 NetworkModified.host[11].wlan[0].mac packetDrop:vector(packetBytes) ETV
attr interpolationmode none
attr source packetDropped
attr title "packet drops, vector(packetBytes)"
vector 336 NetworkModified.host[11].wlan[0].mac packetDropIncorrectlyReceived:vector(packetBytes) ETV
attr interpolationmode none
attr source packetDropReasonIsIncorrectlyReceived(packetDropped)
attr title "packet drops: incorrectly received, vector(packetBytes)"
vector 337 NetworkModified.host[2].wlan[0].mac.dcf packetSentToPeer:vector(packetBytes) ETV
attr interpolationmode none
attr title "packets sent, vector(packetBytes)"
vector 338 NetworkModified.host[2].wlan[0].mac.dcf packetSentToPeerUnicast:vector(packetBytes) ETV
attr interpolationmode none
attr source ieee80211Unicast(packetSentToPeer)
attr title "packets sent: unicast, vector(packetBytes)"
vector 339 NetworkModified.host[2].wlan[0].mac.dcf packetSentToPeerWithoutRetry:vector(packetBytes) ETV
attr interpolationmode none
attr source ieee80211NotRetry(packetSentToPeer)
attr title "packets sent: without retry, vector(packetBytes)"
vector 340 NetworkModified.host[2].wlan[0].mac.rx nav:vector ETV
attr interpolationmode linear
attr source navChanged
attr title "network allocation vector, vector"
vector 341 NetworkModified.host[10].wlan[0].mac.dcf packetReceivedFromPeer:vector(packetBytes) ETV
attr interpolationmode none
attr title "packets received, vector(packetBytes)"
vector 342 NetworkModified.host[10].wlan[0].mac.dcf packetReceivedFromPeerUnicast:vector(packetBytes) ETV
attr interpolationmode none
attr source ieee80211Unicast(packetReceivedFromPeer)
attr title "packets received: unicast, vector(packetBytes)"
vector 343 NetworkModified.host[10].wlan[0].mac.dcf packetReceivedFromPeerWithoutRetry:vector(packetBytes) ETV
attr interpolationmode none
attr source ieee80211NotRetry(packetReceivedFromPeer)
attr title "packets received: without retry, vector(packetBytes)"
vector 344 NetworkModified.host[10].wlan[0].mac.dcf datarateSelected:vector ETV
attr interpolationmode none
attr title "datarates selected, vector"
vector 345 NetworkModified.host[10].wlan[0].mac packetSentToUpper:vector(packetBytes) ETV
attr interpolationmode none
attr title "packets sent to upper layer, vector(packetBytes)"
vector 346 NetworkModified.host[10].wlan[0].mac packetReceivedFromUpper:vector(packetBytes) ETV
attr interpolationmode none
attr title "packets received from upper layer, vector(packetBytes)"
vector 347 NetworkModified.host[10].wlan[0].mac.dcf.channelAccess.pendingQueue packetPushed:vector(packetBytes) ETV
attr interpolationmode none
attr title "packet pushed, vector(packetBytes)"
vector 348 NetworkModified.host[10].wlan[0].mac.dcf.channelAccess.pendingQueue queueLength:vector ETV
attr interpolationmode sample-hold
attr source "count(packetPushed) - count(packetPopped) - count(packetRemoved) - count(packetDropped)"
attr title "queue length, vector"
vector 349 NetworkModified.host[10].wlan[0].mac.dcf.channelAccess.contention backoffPeriodGenerated:vector ETV
attr interpolationmode none
attr title "backoff periods, vector"
vector 350 NetworkModified.host[10].wlan[0].mac.dcf.channelAccess.contention backoffActive:vector ETV
attr interpolationmode sample-hold
attr source count(backoffStarted)-count(backoffStopped)
attr title "backoff active, vector"
vector 351 NetworkModified.host[10].wlan[0].mac packetSentToLower:vector(packetBytes) ETV
attr interpolationmode none
attr title "packets sent to lower layer, vector(packetBytes)"
vector 352 NetworkModified.host[10].wlan[0].radio transmissionState:vector ETV
attr interpolationmode sample-hold
attr source transmissionStateChanged
attr title "Radio transmission state, vector"
vector 353 NetworkModified.host[10].wlan[0].mac.dcf packetSentToPeer:vector(packetBytes) ETV
attr interpolationmode none
attr title "packets sent, vector(packetBytes)"
vector 354 NetworkModified.host[10].wlan[0].mac.dcf packetSentToPeerUnicast:vector(packetBytes) ETV
attr interpolationmode none
attr source ieee80211Unicast(packetSentToPeer)
attr title "packets sent: unicast, vector(packetBytes)"
vector 355 NetworkModified.host[10].wlan[0].mac.dcf packetSentToPeerWithoutRetry:vector(packetBytes) ETV
attr interpolationmode none
attr source ieee80211NotRetry(packetSentToPeer)
attr title "packets sent: without retry, vector(packetBytes)"
vector 356 NetworkModified.host[11].wlan[0].mac.dcf packetDrop:vector(packetBytes) ETV
attr interpolationmode none
attr source packetDropped
attr title "packet drops, vector(packetBytes)"
vector 357 NetworkModified.host[11].wlan[0].mac.dcf packetDropNotAddressedToUs:vector(packetBytes) ETV
attr interpolationmode none
attr source packetDropReasonIsNotAddressedToUs(packetDropped)
attr title "packet drops: not addressed to us, vector(packetBytes)"
vector 358 NetworkModified.host[11].wlan[0].mac packetDropNotAddressedToUs:vector(packetBytes) ETV
attr interpolationmode none
attr source packetDropReasonIsNotAddressedToUs(packetDropped)
attr title "packet drops: not addressed to us, vector(packetBytes)"
vector 359 NetworkModified.host[2].wlan[0].mac packetReceivedFromLower:vector(packetBytes) ETV
attr interpolationmode none
attr title "packets received from lower layer, vector(packetBytes)"
vector 360 NetworkModified.host[2].wlan[0].mac.dcf packetReceivedFromPeer:vector(packetBytes) ETV
attr interpolationmode none
attr title "packets received, vector(packetBytes)"
vector 361 NetworkModified.host[2].wlan[0].mac.dcf packetReceivedFromPeerUnicast:vector(packetBytes) ETV
attr interpolationmode none
attr source ieee80211Unicast(packetReceivedFromPeer)
attr title "packets received: unicast, vector(packetBytes)"
vector 362 NetworkModified.host[2].wlan[0].mac.dcf packetReceivedFromPeerWithoutRetry:vector(packetBytes) ETV
attr interpolationmode none
attr source ieee80211NotRetry(packetReceivedFromPeer)
attr title "packets received: without retry, vector(packetBytes)"
vector 363 NetworkModified.host[2].wlan[0].mac.dcf.channelAccess.inProgressFrames queueingTime:vector ETV
attr interpolationmode none
attr source queueingTime(packetDequeued)
attr title "queueing times, vector"
vector 364 NetworkModified.host[10].wlan[0].mac.dcf.channelAccess.pendingQueue packetPopped:vector(packetBytes) ETV
attr interpolationmode none
attr title "packet popped, vector(packetBytes)"
vector 365 NetworkModified.host[10].wlan[0].mac.dcf.channelAccess.pendingQueue queueingTime:vector ETV
attr interpolationmode none
attr source queueingTime(packetPopped)
attr title "queueing times, vector"
attr unit s
vector 366 NetworkModified.host[10].wlan[0].mac.dcf.channelAccess.inProgressFrames queueLength:vector ETV
attr interpolationmode sample-hold
attr source "count(packetEnqueued) - count(packetDequeued)"
attr title "queue length, vector"
vector 367 NetworkModified.host[10].wlan[0].mac.dcf frameSequenceActive:vector ETV
attr interpolationmode sample-hold
attr source count(frameSequenceStarted)-count(frameSequenceFinished)
attr title "frame sequence active, vector"
vector 368 NetworkModified.host[10].wlan[0].mac.rx nav:vector ETV
attr interpolationmode linear
attr source navChanged
attr title "network allocation vector, vector"
vector 369 NetworkModified.host[2].wlan[0].mac.dcf packetDrop:vector(packetBytes) ETV
attr interpolationmode none
attr source packetDropped
attr title "packet drops, vector(packetBytes)"
[...]
486	4325543 14635 1381 192656 0.010087851946 1.550714527826 506 14 162 50004 7653096
487	4340178 12007 1381 192656 0.010087851946 1.550714527826 416 14 162 38680 5864192
488	4352185 2254 1396 190369 0.010171157537 1.529851119711 77 162 162 12474 2020788
489	4354439 2695 1396 190369 0.010171157537 1.529851119711 77 9.4e-05 0.000863000692 0.030211258373 1.4413292149241e-05
490	4357134 4195 1396 190469 0.010171157537 1.529977453275 154 0 1 77 77
491	4361329 6389 1396 190469 0.010171157537 1.529977453275 234 0 1 117 117
492	4367718 2759 1423 190419 0.010253324319 1.529933286493 94 162 162 15228 2466936
493	4370477 2759 1423 190419 0.010253324319 1.529933286493 94 162 162 15228 2466936
494	4373236 1789 1423 190419 0.010253324319 1.529933286493 61 162 162 9882 1600884
495	4375025 3229 1423 190419 0.010253324319 1.529933286493 94 24000000 24000000 2256000000 5.4144e+16
496	4378254 2257 1423 190419 0.010253324319 1.529933286493 77 134 134 10318 1382612
497	4380511 2257 1426 190422 0.010253324319 1.529933286493 77 108 108 8316 898128
498	4382768 2171 1426 190422 0.010253324319 1.529933286493 77 1 77 3003 155155
499	4384939 2257 1427 190423 0.010253324319 1.529933286493 77 100 100 7700 770000
500	4387196 3095 1427 190423 0.010253324319 1.529933286493 77 0.000930646423 0.023423211977 0.244818242131 0.0014324708026301
501	4390291 2170 1427 190423 0.010253324319 1.529933286493 77 0 76 2926 149226
502	4392461 2665 1449 190442 0.010263324319 1.529943286493 94 14 14 1316 18424
503	4395126 10284 1450 190467 0.010263324319 1.529977286493 376 0 2 376 564
504	4405410 2665 1473 190466 0.010297324319 1.529977286493 94 14 14 1316 18424
505	4408075 2665 1473 190466 0.010297324319 1.529977286493 94 14 14 1316 18424
506	4410740 2665 1473 190466 0.010297324319 1.529977286493 94 14 14 1316 18424
507	4413405 3094 1477 190469 0.010297491101 1.529977453275 77 0.000126333564 0.013775283781 0.060293312186 0.00027420359914103
508	4416499 1648 1525 185295 0.010502851254 1.490902917286 56 162 162 9072 1469664
509	4418147 941 1525 166136 0.010502851254 1.33825043748 32 162 162 5184 839808
510	4419088 941 1525 166136 0.010502851254 1.33825043748 32 162 162 5184 839808
511	4420029 3102 1571 190063 0.010547018036 1.529015086035 77 0.000126333564 0.014005882891 0.151605407205 0.0011746982361112
512	4423131 2279 1593 192544 0.0106173516 1.550587833633 78 162 162 12636 2047032
513	4425410 2749 1593 192544 0.0106173516 1.550587833633 78 0.000114 0.001050333564 0.033749768873 1.7776512001126e-05
514	4428159 4250 1593 192646 0.0106173516 1.550714167197 156 0 1 78 78
515	4432409 7092 1593 192646 0.0106173516 1.550714167197 260 0 1 130 130
516	4439501 4961 1620 193014 0.010699518382 1.551607001107 172 14 162 16320 2482224
517	4444462 4961 1620 193014 0.010699518382 1.551607001107 172 14 162 16320 2482224
518	4449423 3907 1620 193014 0.010699518382 1.551607001107 136 14 162 10488 1537440
519	4453330 7140 1620 192865 0.010699518382 1.551480667543 208 24000000 24000000 4992000000 1.19808e+17
520	4460470 2286 1620 192571 0.010699518382 1.550670000415 78 134 134 10452 1400568
521	4462756 2286 1624 192575 0.010699518382 1.550670000415 78 134 134 10452 1400568
522	4465042 2286 1624 192575 0.010699518382 1.550670000415 78 162 162 12636 2047032
523	4467328 4261 1624 192865 0.010699518382 1.551480667543 156 0 1 78 78
524	4471589 3201 1624 192575 0.010699518382 1.550670000415 114 0 114 2644 105570
525	4474790 13975 1624 192864 0.010699518382 1.551480667543 510 0 1 255 255
526	4488765 6006 1642 192865 0.010709518382 1.551480667543 208 14 162 19784 3010240
527	4494771 22736 1643 192959 0.010709518382 1.551562667543 832 0 2 832 1248
528	4517507 6006 1666 192958 0.010743518382 1.551562667543 208 14 162 19784 3010240
529	4523513 6006 1666 192958 0.010743518382 1.551562667543 208 14 162 19784 3010240
530	4529519 4948 1666 192958 0.010743518382 1.551562667543 172 14 162 13952 2065456
531	4534467 2287 1690 192865 0.011233518382 1.551480667543 78 162 162 12636 2047032
532	4536754 2773 1690 192865 0.011233518382 1.551480667543 78 9.4e-05 0.00120300402 0.035931181135 2.1001507087658e-05
533	4539527 4259 1690 193014 0.011233518382 1.551607001107 156 0 1 78 78
534	4543786 6231 1690 193014 0.011233518382 1.551607001107 228 0 1 114 114
535	4550017 2899 1717 192963 0.011315685164 1.551562834325 99 162 162 16038 2598156
536	4552916 2899 1717 192963 0.011315685164 1.551562834325 99 162 162 16038 2598156
537	4555815 2021 1717 192963 0.011315685164 1.551562834325 69 162 162 11178 1810836
538	4557836 3394 1717 192963 0.011315685164 1.551562834325 99 24000000 24000000 2376000000 5.7024e+16
539	4561230 2283 1717 192963 0.011315685164 1.551562834325 78 134 134 10452 1400568
540	4563513 2283 1720 192966 0.011315685164 1.551562834325 78 108 108 8424 909792
541	4565796 2196 1720 192966 0.011315685164 1.551562834325 78 1 78 3081 161239
542	4567992 2283 1721 192967 0.011315685164 1.551562834325 78 100 100 7800 780000
543	4570275 3134 1721 192967 0.011315685164 1.551562834325 78 0.001090673596 0.031735468356 0.331714571427 0.0025627983861777
544	4573409 2195 1721 192967 0.011315685164 1.551562834325 78 0 77 3003 155155
545	4575604 2800 1740 192987 0.011325685164 1.551572834325 99 14 14 1386 19404
546	4578404 10804 1741 193012 0.011325685164 1.551606834325 396 0 2 396 594
547	4589208 2800 1764 193011 0.011359685164 1.551606834325 99 14 14 1386 19404
548	4592008 2800 1764 193011 0.011359685164 1.551606834325 99 14 14 1386 19404
549	4594808 2800 1764 193011 0.011359685164 1.551606834325 99 14 14 1386 19404
550	4597608 3142 1768 193014 0.011359851946 1.551607001107 78 0.000126333564 0.003900635808 0.048256401979 8.209538715075e-05
551	4600750 8058 1782 193258 0.011360519095 1.552826622726 278 14 162 34084 5368280
552	4608808 8028 1782 193258 0.011360519095 1.552826622726 277 14 162 33922 5342036
553	4616836 8028 1782 193258 0.011360519095 1.552826622726 277 14 162 33922 5342036
554	4624864 1526 1811 181251 0.011771685164 1.451725986808 52 162 162 8424 1364688
555	4626390 1054 1816 181255 0.011771851946 1.45172615359 36 162 162 5832 944784
556	4627444 469 1816 181255 0.011771851946 1.45172615359 16 162 162 2592 419904
557	4627913 469 1816 181255 0.011771851946 1.45172615359 16 162 162 2592 419904
558	4628382 3760 1863 192646 0.011816018728 1.550714167197 131 14 162 9678 1406220
559	4632142 3141 1863 192646 0.011816018728 1.550714167197 78 0.000126333564 0.009641162717 0.080172304147 0.00032655220141804
560	4635283 4954 1910 190546 0.012599018036 1.530054300989 172 14 162 16468 2508272
561	4640237 4954 1910 190546 0.012599018036 1.530054300989 172 14 162 16468 2508272
562	4645191 996 1910 189063 0.012599018036 1.522813418602 34 162 162 5508 892296
563	4646187 7351 1910 190392 0.012599018036 1.529927967425 214 24000000 24000000 5136000000 1.23264e+17
564	4653538 2256 1910 190265 0.012599018036 1.529593967425 77 134 134 10318 1382612
565	4655794 2256 1914 190269 0.012599018036 1.529593967425 77 134 134 10318 1382612
566	4658050 2256 1914 190269 0.012599018036 1.529593967425 77 162 162 12474 2020788
567	4660306 4205 1914 190392 0.012599018036 1.529927967425 154 0 1 77 77
568	4664511 3362 1914 190269 0.012599018036 1.529593967425 119 0 285 3591 263933
569	4667873 13691 1914 190391 0.012599018036 1.529927967425 500 0 1 250 250
570	4681564 6186 1932 190392 0.012609018036 1.529927967425 214 14 162 20608 3141656
571	4687750 23414 1933 190491 0.012609018036 1.530009967425 856 0 2 856 1284
572	4711164 6187 1955 190490 0.012643018036 1.530009967425 214 14 162 20608 3141656
573	4717351 6187 1955 190490 0.012643018036 1.530009967425 214 14 162 20608 3141656
574	4723538 4945 1955 190490 0.012643018036 1.530009967425 172 14 162 13804 2039408
575	4728483 3101 1959 190346 0.012643184818 1.529638134207 77 0.000126333564 0.013212667128 0.073710407822 0.0003596978997145
576	4731584 9322 1962 191948 0.0126433516 1.548662045884 321 14 162 38830 6106052
577	4740906 8079 1962 191948 0.0126433516 1.548662045884 279 14 162 32026 5003804
578	4748985 10832 1962 191948 0.0126433516 1.548662045884 373 14 162 45330 7132116
579	4759817 8079 1962 191948 0.0126433516 1.548662045884 279 14 162 32026 5003804
580	4767896 2257 1982 190392 0.013213018036 1.529927967425 77 162 162 12474 2020788
581	4770153 2698 1982 190392 0.013213018036 1.529927967425 77 9.4e-05 0.001136989633 0.036335160586 2.0671221793699e-05
582	4772851 4198 1982 190546 0.013213018036 1.530054300989 154 0 1 77 77
583	4777049 6512 1982 190546 0.013213018036 1.530054300989 238 0 1 119 119
584	4783561 2872 2009 190495 0.013295184818 1.530010134207 98 162 162 15876 2571912
585	4786433 2872 2009 190495 0.013295184818 1.530010134207 98 162 162 15876 2571912
586	4789305 1871 2009 190495 0.013295184818 1.530010134207 64 162 162 10368 1679616
587	4791176 3362 2009 190495 0.013295184818 1.530010134207 98 24000000 24000000 2352000000 5.6448e+16
588	4794538 2254 2009 190495 0.013295184818 1.530010134207 77 134 134 10318 1382612
589	4796792 2254 2012 190498 0.013295184818 1.530010134207 77 108 108 8316 898128
590	4799046 2168 2012 190498 0.013295184818 1.530010134207 77 1 77 3003 155155
591	4801214 2254 2013 190499 0.013295184818 1.530010134207 77 100 100 7700 770000
592	4803468 3093 2013 190499 0.013295184818 1.530010134207 77 0.001170672821 0.014266610471 0.264723921274 0.0013220365895654
593	4806561 2167 2013 190499 0.013295184818 1.530010134207 77 0 76 2926 149226
594	4808728 2774 2033 190518 0.013305184818 1.530020134207 98 14 14 1372 19208
595	4811502 10704 2034 190543 0.013305184818 1.530054134207 392 0 2 392 588
596	4822206 2774 2057 190542 0.013339184818 1.530054134207 98 14 14 1372 19208
597	4824980 2774 2057 190542 0.013339184818 1.530054134207 98 14 14 1372 19208
598	4827754 2774 2057 190542 0.013339184818 1.530054134207 98 14 14 1372 19208
599	4830528 1242 2104 185596 0.014551018036 1.492391084068 42 162 162 6804 1102248
600	4831770 1001 2109 185601 0.014551184818 1.49239125085 34 162 162 5508 892296
601	4832771 618 2109 185601 0.014551184818 1.49239125085 21 162 162 3402 551124
602	4833389 618 2109 185601 0.014551184818 1.49239125085 21 162 162 3402 551124
603	4834007 3958 2158 190546 0.0145953516 1.530054300989 138 14 162 10960 1615976
604	4837965 3091 2158 190546 0.0145953516 1.530054300989 77 0.000126333564 0.00939216287 0.065561143144 0.00026312269998348
605	4841056 999 2446 188486 0.028278614531 1.517422557928 34 162 162 5508 892296
606	4842055 704 2449 188489 0.028278781313 1.51742272471 24 162 162 3888 629856
607	4842759 10467 2464 190291 0.028279322127 1.529601286493 357 0 4.4e-05 0.005236 2.30384e-07
608	4853226 428 2609 188165 0.028474948095 1.515958224364 15 14 162 1394 211324
609	4853654 1446 2737 187748 0.028598852007 1.51175525182 50 14 162 5880 921480
610	4855100 755 2745 159498 0.028599185571 1.289807495615 26 14 162 3176 500008
611	4855855 2791 2810 191191 0.029077456198 1.536052568785 95 162 162 15390 2493180
612	4858646 824 2860 192471 0.029270781313 1.550108047866 28 162 162 4536 734832
613	4859470 734 2864 192476 0.029270948095 1.550108214648 25 162 162 4050 656100
614	4860204 1289 3187 177485 0.029827381496 1.430046918693 44 162 162 7128 1154736
615	4861493 994 3190 177488 0.029827547398 1.430047049294 34 162 162 5508 892296
616	4862487 1510 3396 191858 0.030366651852 1.548554753469 52 14 162 6500 1026064
617	4863997 2954 3565 193158 0.03089056068 1.552590150119 100 162 162 16200 2624400
618	4866951 1888 3568 193161 0.030890728621 1.552590386417 64 162 162 10368 1679616
619	4868839 1243 3568 179242 0.030890728621 1.441497698817 42 162 162 6804 1102248
620	4870082 1243 3568 179242 0.030890728621 1.441497698817 42 162 162 6804 1102248
621	4871325 1198 3681 193059 0.031022948095 1.552004214648 41 162 162 6642 1076004
622	4872523 375 3686 191826 0.031023114877 1.548525428709 13 14 162 1514 236980
623	4872898 734 3723 188164 0.031060241591 1.515958224364 25 14 162 3310 525860
624	4873632 9213 3888 193017 0.031367228967 1.551607194954 315 0 4.4e-05 0.00462 2.0328e-07
625	4882845 1162 3909 192975 0.031396047744 1.551563194954 40 14 162 4112 632992
626	4884007 1757 3963 191194 0.031656241519 1.536052778747 60 162 162 9720 1574640
627	4885764 968 4118 193064 0.032699114877 1.55200438143 33 162 162 5346 866052
628	4886732 616 4118 183404 0.032699114877 1.474958930945 21 162 162 3402 551124
629	4887348 616 4118 183404 0.032699114877 1.474958930945 21 162 162 3402 551124
630	4887964 526 4240 189063 0.033092935712 1.522813418602 18 162 162 2916 472392
631	4888490 526 4240 189063 0.033092935712 1.522813418602 18 162 162 2916 472392
632	4889016 1177 4280 184110 0.033135642288 1.480110496386 40 162 162 6480 1049760
633	4890193 970 4285 184115 0.03313580907 1.480110663168 33 162 162 5346 866052
634	4891163 2324 4302 192900 0.033136349608 1.551514069766 80 14 162 9556 1500416
635	4893487 854 4510 192768 0.034124408301 1.551286500761 29 162 162 4698 761076
636	4894341 854 4510 192768 0.034124408301 1.551286500761 29 162 162 4698 761076
637	4895195 1058 4806 178817 0.036172575083 1.434117077743 36 162 162 5832 944784
638	4896253 878 4811 178822 0.036172741865 1.434117244525 30 162 162 4860 787320
639	4897131 616 4811 178822 0.036172741865 1.434117244525 21 162 162 3402 551124
640	4897747 616 4811 178822 0.036172741865 1.434117244525 21 162 162 3402 551124
641	4898363 8361 5269 191554 0.04716311596 1.546987202428 285 0 4.4e-05 0.00418 1.8392e-07
642	4906724 1773 5979 192669 0.050173982372 1.550784575277 60 162 162 9720 1574640
643	4908497 1240 6231 185695 0.051470149154 1.493298330695 42 162 162 6804 1102248
644	4909737 881 6457 191194 0.052526676426 1.536052778747 30 162 162 4860 787320
645	4910618 881 6457 191194 0.052526676426 1.536052778747 30 162 162 4860 787320
646	4911499 1241 9349 192890 0.087343295175 1.551513383752 42 162 162 6804 1102248
647	4912740 1241 9349 192890 0.087343295175 1.551513383752 42 162 162 6804 1102248
648	4913981 2037 9582 188372 0.08852498839 1.516606751775 70 14 162 8084 1264024
649	4916018 2214 10290 189901 0.090493958473 1.528599353812 76 14 162 8168 1265200
650	4918232 1605 10318 189513 0.090510648542 1.527603636041 55 14 162 6838 1078748
651	4919837 305 11566 188366 0.1 1.5 15 32000 48000 592000 23552000000
652	4920142 441 11661 192476 0.108314952678 1.550108214648 15 162 162 2430 393660
653	4920583 441 11661 192476 0.108314952678 1.550108214648 15 162 162 2430 393660
654	4921024 1837 12410 188193 0.109925488644 1.516014615342 63 14 162 7246 1132412
655	4922861 591 12420 185695 0.109980248671 1.493298330695 20 162 162 3240 524880
656	4923452 591 12420 185695 0.109980248671 1.493298330695 20 162 162 3240 524880
657	4924043 305 12722 186956 0.1 1.5 15 40000 40000 600000 24000000000
658	4924348 305 12872 187655 0.1 1.5 15 40000 40000 600000 24000000000
659	4924653 305 13115 187753 0.1 1.5 15 40000 40000 600000 24000000000
660	4924958 502 13212 184115 0.111764582235 1.480110663168 17 162 162 2754 446148
661	4925460 502 13212 184115 0.111764582235 1.480110663168 17 162 162 2754 446148
662	4925962 441 13901 188489 0.126862787043 1.51742272471 15 162 162 2430 393660
663	4926403 441 13901 188489 0.126862787043 1.51742272471 15 162 162 2430 393660
664	4926844 557 14875 177488 0.129880785647 1.430047049294 19 162 162 3078 498636
665	4927401 557 14875 177488 0.129880785647 1.430047049294 19 162 162 3078 498636
666	4927958 1789 15043 187239 0.130856952429 1.51068928687 61 162 162 9882 1600884
667	4929747 1294 15048 187244 0.130857119211 1.510689453652 44 162 162 7128 1154736
668	4931041 765 15048 187244 0.130857119211 1.510689453652 26 162 162 4212 682344
669	4931806 765 15048 187244 0.130857119211 1.510689453652 26 162 162 4212 682344
670	4932571 438 21181 184607 0.188525151868 1.488569341212 15 14 162 2134 341564
671	4933009 670 28953 192666 0.24852524893 1.550715014911 23 14 162 2542 395228
672	4933679 30 149488 149488 1.213941832362 1.213941832362 1 162 162 162 26244
673	4933709 30 149488 149488 1.213941832362 1.213941832362 1 162 162 162 26244
674	4933739 30 182697 182697 1.471844886091 1.471844886091 1 162 162 162 26244
675	4933769 30 182697 182697 1.471844886091 1.471844886091 1 162 162 162 26244
vector 676 NetworkModified.host[0].app[0] throughput:vector ETV
attr source throughput(packetReceived)
attr title "throughput, vector"
attr unit bps
vector 677 NetworkModified.host[1].app[0] throughput:vector ETV
attr source throughput(packetReceived)
attr title "throughput, vector"
attr unit bps
vector 678 NetworkModified.host[2].app[0] throughput:vector ETV
attr source throughput(packetReceived)
attr title "throughput, vector"
attr unit bps
vector 679 NetworkModified.host[3].app[0] throughput:vector ETV
attr source throughput(packetReceived)
attr title "throughput, vector"
attr unit bps
vector 680 NetworkModified.host[4].app[0] throughput:vector ETV
attr source throughput(packetReceived)
attr title "throughput, vector"
attr unit bps
vector 681 NetworkModified.host[5].app[0] throughput:vector ETV
attr source throughput(packetReceived)
attr title "throughput, vector"
attr unit bps
vector 682 NetworkModified.host[6].app[0] throughput:vector ETV
attr source throughput(packetReceived)
attr title "throughput, vector"
attr unit bps
vector 683 NetworkModified.host[7].app[0] throughput:vector ETV
attr source throughput(packetReceived)
attr title "throughput, vector"
attr unit bps
vector 684 NetworkModified.host[8].app[0] throughput:vector ETV
attr source throughput(packetReceived)
attr title "throughput, vector"
attr unit bps
vector 685 NetworkModified.host[9].app[0] throughput:vector ETV
attr source throughput(packetReceived)
attr title "throughput, vector"
attr unit bps
vector 686 NetworkModified.host[10].app[0] throughput:vector ETV
attr source throughput(packetReceived)
attr title "throughput, vector"
attr unit bps
vector 687 NetworkModified.host[11].app[0] throughput:vector ETV
attr source throughput(packetReceived)
attr title "throughput, vector"
attr unit bps
vector 688 NetworkModified.host[12].app[0] throughput:vector ETV
attr source throughput(packetReceived)
attr title "throughput, vector"
attr unit bps
vector 689 NetworkModified.host[13].app[0] throughput:vector ETV
attr source throughput(packetReceived)
attr title "throughput, vector"
attr unit bps
vector 690 NetworkModified.host[14].app[0] throughput:vector ETV
attr source throughput(packetReceived)
attr title "throughput, vector"
attr unit bps
vector 691 NetworkModified.host[15].app[0] throughput:vector ETV
attr source throughput(packetReceived)
attr title "throughput, vector"
attr unit bps
651	4936189 42 193280 193280 1.553420834325 1.553420834325 1 59901.722622525 59901.722622525 59901.722622525 3588216373.1459
657	4936231 42 193280 193280 1.553420834325 1.553420834325 1 29950.861311262 29950.861311262 29950.861311262 897054093.28647
658	4936273 42 193280 193280 1.553420834325 1.553420834325 1 44926.291966894 44926.291966894 44926.291966894 2018371709.8946
659	4936315 42 193280 193280 1.553420834325 1.553420834325 1 29950.861311262 29950.861311262 29950.861311262 897054093.28647
676	4936357 281 193280 193280 0.1 1.553420834325 16 0 0 0 0
677	4936638 281 193280 193280 0.1 1.553420834325 16 0 0 0 0
678	4936919 281 193280 193280 0.1 1.553420834325 16 0 0 0 0
679	4937200 281 193280 193280 0.1 1.553420834325 16 0 0 0 0
680	4937481 281 193280 193280 0.1 1.553420834325 16 0 0 0 0
681	4937762 281 193280 193280 0.1 1.553420834325 16 0 0 0 0
682	4938043 281 193280 193280 0.1 1.553420834325 16 0 0 0 0
683	4938324 281 193280 193280 0.1 1.553420834325 16 0 0 0 0
684	4938605 281 193280 193280 0.1 1.553420834325 16 0 0 0 0
685	4938886 281 193280 193280 0.1 1.553420834325 16 0 0 0 0
686	4939167 281 193280 193280 0.1 1.553420834325 16 0 0 0 0
687	4939448 281 193280 193280 0.1 1.553420834325 16 0 0 0 0
688	4939729 281 193280 193280 0.1 1.553420834325 16 0 0 0 0
689	4940010 281 193280 193280 0.1 1.553420834325 16 0 0 0 0
690	4940291 281 193280 193280 0.1 1.553420834325 16 0 0 0 0
691	4940572 281 193280 193280 0.1 1.553420834325 16 0 0 0 0

