version 2
run MobilitySecond-0-20200526-01:38:04-14015
attr configname MobilitySecond
attr datetime 20200526-01:38:04
attr experiment MobilitySecond
attr inifile omnetpp.ini
attr iterationvars ""
attr iterationvarsf ""
attr measurement ""
attr network NetworkModified
attr processid 14015
attr repetition 0
attr replication #0
attr resultdir results
attr runnumber 0
attr seedset 0
param **.host[0..3].mobility.typename "\"MassMobility\""
param **.host[0..3].mobility.initFromDisplayString false
param **.host[0..3].mobility.changeInterval "truncnormal(2s, 0.5s)"
param **.host[0..3].mobility.angleDelta "normal(0deg, 30deg)"
param **.host[0..3].mobility.speed "truncnormal(20mps, 8mps)"
param **.host[0..3].mobility.updateInterval 100ms
param **.host[4..19].mobility.typename "\"StationaryMobility\""
param **.host[4..19].mobility.initFromDisplayString false
param **.host[0].mobility.initialX 100m
param **.host[0].mobility.initialY 100m
param **.host[1].mobility.initialX 100m
param **.host[1].mobility.initialY 150m
param **.host[2].mobility.initialX 400m
param **.host[2].mobility.initialY 100m
param **.host[3].mobility.initialX 400m
param **.host[3].mobility.initialY 150m
param **.host[4].mobility.initialX 110m
param **.host[4].mobility.initialY 100m
param **.host[5].mobility.initialX 110m
param **.host[5].mobility.initialY 110m
param **.host[6].mobility.initialX 110m
param **.host[6].mobility.initialY 120m
param **.host[7].mobility.initialX 110m
param **.host[7].mobility.initialY 150m
param **.host[8].mobility.initialX 110m
param **.host[8].mobility.initialY 140m
param **.host[9].mobility.initialX 110m
param **.host[9].mobility.initialY 130m
param **.host[10].mobility.initialX 410m
param **.host[10].mobility.initialY 100m
param **.host[11].mobility.initialX 410m
param **.host[11].mobility.initialY 110m
param **.host[12].mobility.initialX 410m
param **.host[12].mobility.initialY 120m
param **.host[13].mobility.initialX 410m
param **.host[13].mobility.initialY 150m
param **.host[14].mobility.initialX 410m
param **.host[14].mobility.initialY 140m
param **.host[15].mobility.initialX 410m
param **.host[15].mobility.initialY 130m
param **.host[16].mobility.initialX 120m
param **.host[16].mobility.initialY 120m
param **.host[17].mobility.initialX 120m
param **.host[17].mobility.initialY 130m
param **.host[18].mobility.initialX 420m
param **.host[18].mobility.initialY 120m
param **.host[19].mobility.initialX 420m
param **.host[19].mobility.initialY 130m
param **.number 20
param **.networkConfiguratorModule "\"networkConfigurator\""
param **.networkConfigurator.config "xmldoc(\"lessnodes.xml\")"
param **.host[*].hasIpv4 false
param **.host[*].hasIpv6 false
param **.host[*].hasGn true
param **.host[*].generic.typename "\"NextHopNetworkLayer\""
param **.host[*].generic.nextHop.hopLimit 4
param **.numApps 1
param **.radioMedium.pathLoss.typename "\"LogNormalShadowing\""
param **.radioMedium.pathLoss.alpha 4.03
param **.radioMedium.pathLoss.sigma 4.98
param **.networkConfigurator.typename "\"NextHopNetworkConfigurator\""
param *.host[*].wlan[2].radio.displayCommunicationRange true
param *.visualizer.sceneVisualizer.descriptionFigure "\"title\""
param *.visualizer.mediumVisualizer.displaySignals true
param *.visualizer.physicalLinkVisualizer.displayLinks true
param *.host[*].wlan[0].radio.transmitter.communicationRange 200m
param *.host[*].wlan[0].radio.displayCommunicationRange true
param **.host[4..19].app[0].typename "\"UdpSink\""
param **.host[4..19].app[0].localPort 7654
param **.host[0..3].app[0].typename "\"UdpBasicApp\""
param **.host[0..3].app[0].destPort 7654
param **.host[0].app[0].destAddresses "\"host[16]\""
param **.host[1].app[0].destAddresses "\"host[17]\""
param **.host[2].app[0].destAddresses "\"host[18]\""
param **.host[3].app[0].destAddresses "\"host[19]\""
param **.host[0..3].app[0].messageLength 100B
param **.host[0..3].app[0].startTime "uniform(0s, 10ms)"
param **.host[0..3].app[0].sendInterval 20ms
param **.host[0].app[0].packetName "\"UDP_Data_Sender0\""
param **.host[1].app[0].packetName "\"UDP_Data_Sender1\""
param **.host[2].app[0].packetName "\"UDP_Data_Sender2\""
param **.host[3].app[0].packetName "\"UDP_Data_Sender3\""
param **.host[0].generic.nextHop.nextHopParam "\"host[4].wlan[0]\""
param **.host[1].generic.nextHop.nextHopParam "\"host[7].wlan[0]\""
param **.host[2].generic.nextHop.nextHopParam "\"host[10].wlan[0]\""
param **.host[3].generic.nextHop.nextHopParam "\"host[13].wlan[0]\""
param **.host[4].generic.nextHop.nextHopParam "\"host[5].wlan[0]\""
param **.host[5].generic.nextHop.nextHopParam "\"host[6].wlan[0]\""
param **.host[6].generic.nextHop.nextHopParam "\"host[16].wlan[0]\""
param **.host[7].generic.nextHop.nextHopParam "\"host[8].wlan[0]\""
param **.host[8].generic.nextHop.nextHopParam "\"host[9].wlan[0]\""
param **.host[9].generic.nextHop.nextHopParam "\"host[17].wlan[0]\""
param **.host[10].generic.nextHop.nextHopParam "\"host[11].wlan[0]\""
param **.host[11].generic.nextHop.nextHopParam "\"host[12].wlan[0]\""
param **.host[12].generic.nextHop.nextHopParam "\"host[18].wlan[0]\""
param **.host[13].generic.nextHop.nextHopParam "\"host[14].wlan[0]\""
param **.host[14].generic.nextHop.nextHopParam "\"host[15].wlan[0]\""
param **.host[15].generic.nextHop.nextHopParam "\"host[19].wlan[0]\""
param **.host[16].generic.nextHop.nextHopParam "\"host[16].wlan[0]\""
param **.host[17].generic.nextHop.nextHopParam "\"host[17].wlan[0]\""
param **.host[18].generic.nextHop.nextHopParam "\"host[18].wlan[0]\""
param **.host[19].generic.nextHop.nextHopParam "\"host[19].wlan[0]\""
param **.host[*].mobility.initialZ 0m
param **.constraintAreaMaxX 1000m
param **.constraintAreaMaxY 1000m
param **.constraintAreaMaxZ 0m
param **.constraintAreaMinX 0m
param **.constraintAreaMinY 0m
param **.constraintAreaMinZ 0m

scalar NetworkModified.radioMedium.propagation "Arrival computation count" 134615
scalar NetworkModified.radioMedium "transmission count" 7085
scalar NetworkModified.radioMedium "signal send count" 134615
scalar NetworkModified.radioMedium "reception computation count" 134615
scalar NetworkModified.radioMedium "interference computation count" 401738
scalar NetworkModified.radioMedium "reception decision computation count" 21251
scalar NetworkModified.radioMedium "listening decision computation count" 246681
scalar NetworkModified.radioMedium "reception cache hit" 74.993591196347
attr unit %
scalar NetworkModified.radioMedium "interference cache hit" 66.666666666667
attr unit %
scalar NetworkModified.radioMedium "noise cache hit" 0
attr unit %
scalar NetworkModified.radioMedium "snir cache hit" 50
attr unit %
scalar NetworkModified.radioMedium "reception decision cache hit" 50
attr unit %
scalar NetworkModified.radioMedium "reception result cache hit" 0
attr unit %
scalar NetworkModified.host[0].lo[0].lo rcvdPkFromHl:count 0
attr interpolationmode none
attr source packetReceivedFromUpper
attr title "packets received from higher layer, count"
scalar NetworkModified.host[0].lo[0].lo rcvdPkFromHl:sum(packetBytes) 0
attr interpolationmode none
attr source packetReceivedFromUpper
attr title "packets received from higher layer, sum(packetBytes)"
scalar NetworkModified.host[0].lo[0].lo passedUpPk:count 0
attr interpolationmode none
attr source packetSentToUpper
attr title "packets passed to higher layer, count"
scalar NetworkModified.host[0].lo[0].lo passedUpPk:sum(packetBytes) 0
attr interpolationmode none
attr source packetSentToUpper
attr title "packets passed to higher layer, sum(packetBytes)"
scalar NetworkModified.host[0].wlan[0].mac.dcf.channelAccess.pendingQueue packetPopped:count 191
attr interpolationmode none
attr title "packet popped, count"
scalar NetworkModified.host[0].wlan[0].mac.dcf.channelAccess.pendingQueue packetPopped:sum(packetBytes) 30942
attr interpolationmode none
attr title "packet popped, sum(packetBytes)"
statistic NetworkModified.host[0].wlan[0].mac.dcf.channelAccess.pendingQueue queueingTime:histogram
field count 191
field mean 1.843005889336
field stddev 2.0527997063883
field min 0
field max 6.149110976963
field sum 352.01412486318
field sqrsum 1449.4215658164
attr interpolationmode none
attr source queueingTime(packetPopped)
attr title "queueing times, histogram"
attr unit s
bin	-inf	0
bin	0	74
bin	0.1	4
bin	0.2	2
bin	0.3	2
bin	0.4	1
bin	0.5	3
bin	0.6	4
bin	0.7	1
bin	0.8	3
bin	0.9	2
bin	1	2
bin	1.1	3
bin	1.2	2
bin	1.3	2
bin	1.4	2
bin	1.5	1
bin	1.6	3
bin	1.7	1
bin	1.8	2
bin	1.9	2
bin	2	1
bin	2.1	2
bin	2.2	2
bin	2.3	1
bin	2.4	2
bin	2.5	2
bin	2.6	2
bin	2.7	2
bin	2.8	1
bin	2.9	3
bin	3	1
bin	3.1	2
bin	3.2	2
bin	3.3	1
bin	3.4	1
bin	3.5	2
bin	3.6	2
bin	3.7	1
bin	3.8	3
bin	3.9	2
bin	4	1
bin	4.1	2
bin	4.2	2
bin	4.3	2
bin	4.4	2
bin	4.5	2
bin	4.6	2
bin	4.7	2
bin	4.8	1
bin	4.9	2
bin	5	2
bin	5.1	1
bin	5.2	2
bin	5.3	3
bin	5.4	1
bin	5.5	1
bin	5.6	2
bin	5.7	2
bin	5.8	2
bin	5.9	2
bin	6	2
bin	6.1	2
bin	6.2	0
bin	6.3	0
bin	6.4	0
bin	6.5	0
bin	6.6	0
bin	6.7	0
bin	6.8	0
bin	6.9	0
bin	7	0
bin	7.1	0
bin	7.2	0
bin	7.3	0
bin	7.4	0
bin	7.5	0
bin	7.6	0
bin	7.7	0
scalar NetworkModified.host[0].wlan[0].mac.dcf.channelAccess.pendingQueue queueLength:max 101
attr interpolationmode sample-hold
attr source "count(packetPushed) - count(packetPopped) - count(packetRemoved) - count(packetDropped)"
attr title "queue length, max"
scalar NetworkModified.host[0].wlan[0].mac.dcf.channelAccess.pendingQueue queueLength:timeavg 70.945424930239
attr interpolationmode sample-hold
attr source "count(packetPushed) - count(packetPopped) - count(packetRemoved) - count(packetDropped)"
attr title "queue length, timeavg"
scalar NetworkModified.host[0].wlan[0].mac.dcf.channelAccess.pendingQueue packetPushed:count 500
attr interpolationmode none
attr title "packet pushed, count"
scalar NetworkModified.host[0].wlan[0].mac.dcf.channelAccess.pendingQueue packetPushed:sum(packetBytes) 81000
attr interpolationmode none
attr title "packet pushed, sum(packetBytes)"
scalar NetworkModified.host[0].wlan[0].mac.dcf.channelAccess.pendingQueue packetDropQueueOverflow:count 209
attr interpolationmode none
attr source packetDropReasonIsQueueOverflow(packetDropped)
attr title "packet drops: queue overflow, count"
scalar NetworkModified.host[0].wlan[0].mac.dcf.channelAccess.pendingQueue packetDropQueueOverflow:sum(packetBytes) 33858
attr interpolationmode none
attr source packetDropReasonIsQueueOverflow(packetDropped)
attr title "packet drops: queue overflow, sum(packetBytes)"
scalar NetworkModified.host[0].wlan[0].mac.dcf.channelAccess.pendingQueue packetRemoved:count 0
attr interpolationmode none
attr title "packets removed, count"
scalar NetworkModified.host[0].wlan[0].mac.dcf.channelAccess.pendingQueue packetRemoved:sum(packetBytes) 0
attr interpolationmode none
attr title "packets removed, sum(packetBytes)"
statistic NetworkModified.host[0].wlan[0].mac.dcf.channelAccess.inProgressFrames queueingTime:histogram
field count 189
field mean 0.086405948375603
field stddev 0.065498847581169
field min 0.000126067407
field max 0.184825
field sum 16.330724242989
field sqrsum 2.2176103343546
attr interpolationmode none
attr source queueingTime(packetDequeued)
attr title "queueing times, histogram"
bin	-inf	0
bin	0	52
bin	0.005	3
bin	0.01	1
bin	0.015	2
bin	0.02	2
bin	0.025	2
bin	0.03	3
bin	0.035	1
bin	0.04	3
bin	0.045	1
bin	0.05	0
bin	0.055	1
bin	0.06	3
bin	0.065	1
bin	0.07	1
bin	0.075	1
bin	0.08	2
bin	0.085	2
bin	0.09	3
bin	0.095	4
bin	0.1	2
bin	0.105	3
bin	0.11	5
bin	0.115	5
bin	0.12	11
bin	0.125	6
bin	0.13	5
bin	0.135	12
bin	0.14	6
bin	0.145	12
bin	0.15	5
bin	0.155	5
bin	0.16	10
bin	0.165	4
bin	0.17	5
bin	0.175	4
bin	0.18	1
bin	0.185	0
bin	0.19	0
bin	0.195	0
bin	0.2	0
bin	0.205	0
bin	0.21	0
bin	0.215	0
bin	0.22	0
bin	0.225	0
bin	0.23	0
bin	0.235	0
scalar NetworkModified.host[0].wlan[0].mac.dcf.channelAccess.inProgressFrames queueLength:max 2
attr interpolationmode sample-hold
attr source "count(packetEnqueued) - count(packetDequeued)"
attr title "queue length, max"
scalar NetworkModified.host[0].wlan[0].mac.dcf.channelAccess.inProgressFrames queueLength:timeavg 1.6480012779135
attr interpolationmode sample-hold
attr source "count(packetEnqueued) - count(packetDequeued)"
attr title "queue length, timeavg"
scalar NetworkModified.host[0].wlan[0].mac.dcf.channelAccess.contention channelAccessGranted:count 1007
attr title "channel access granted, count"
scalar NetworkModified.host[0].wlan[0].mac.dcf.channelAccess.contention stateChanged:count 9518
attr interpolationmode none
attr title "contention state changed, count"
scalar NetworkModified.host[0].wlan[0].mac.dcf.channelAccess channelOwnershipChanged:count 2014
attr interpolationmode sample-hold
attr title "channel ownership, count"
scalar NetworkModified.host[0].wlan[0].mac.dcf.originatorMacDataService packetAggregated:count 0
attr title "packets aggregated, count"
scalar NetworkModified.host[0].wlan[0].mac.dcf.originatorMacDataService packetFragmented:count 0
attr title "packets fragmented, count"
scalar NetworkModified.host[0].wlan[0].mac.dcf.recipientMacDataService packetDeaggregated:count 0
attr title "packets deaggregated, count"
scalar NetworkModified.host[0].wlan[0].mac.dcf.recipientMacDataService packetDefragmented:count 0
attr title "packets defragmented, count"
scalar NetworkModified.host[0].wlan[0].mac.dcf.recipientMacDataService packetDropDuplicateDetected:count 0
attr interpolationmode none
attr source packetDropReasonIsDuplicateDetected(packetDropped)
attr title "packet drops: duplicate detected, count"
scalar NetworkModified.host[0].wlan[0].mac.dcf.recipientMacDataService packetDropDuplicateDetected:sum(packetBytes) 0
attr interpolationmode none
attr source packetDropReasonIsDuplicateDetected(packetDropped)
attr title "packet drops: duplicate detected, sum(packetBytes)"
scalar NetworkModified.host[0].wlan[0].mac.dcf.recoveryProcedure retryLimitReached:count 122
attr title "retry limit reached, count"
scalar NetworkModified.host[0].wlan[0].mac.dcf frameSequenceFinished:count 1007
attr title "finished frame sequences, count"
statistic NetworkModified.host[0].wlan[0].mac.dcf frameSequenceDuration:histogram
field count 1007
field mean 0.00013627794114796
field stddev 2.7059507157791e-06
field min 0.000126067407
field max 0.000137
field sum 0.137231886736
field sqrsum 1.8709045086524e-05
attr source frameSequenceDuration(frameSequenceFinished)
attr title "frame sequence durations, histogram"
bin	-inf	0
bin	0.0001232	0
bin	0.0001234	0
bin	0.0001236	0
bin	0.0001238	0
bin	0.000124	0
bin	0.0001242	0
bin	0.0001244	0
bin	0.0001246	0
bin	0.0001248	0
bin	0.000125	0
bin	0.0001252	0
bin	0.0001254	0
bin	0.0001256	0
bin	0.0001258	0
bin	0.000126	56
bin	0.0001262	11
bin	0.0001264	0
bin	0.0001266	0
bin	0.0001268	0
bin	0.000127	0
bin	0.0001272	0
bin	0.0001274	0
bin	0.0001276	0
bin	0.0001278	0
bin	0.000128	0
bin	0.0001282	0
bin	0.0001284	0
bin	0.0001286	0
bin	0.0001288	0
bin	0.000129	0
bin	0.0001292	0
bin	0.0001294	0
bin	0.0001296	0
bin	0.0001298	0
bin	0.00013	0
bin	0.0001302	0
bin	0.0001304	0
bin	0.0001306	0
bin	0.0001308	0
bin	0.000131	0
bin	0.0001312	0
bin	0.0001314	0
bin	0.0001316	0
bin	0.0001318	0
bin	0.000132	0
bin	0.0001322	0
bin	0.0001324	0
bin	0.0001326	0
bin	0.0001328	0
bin	0.000133	0
bin	0.0001332	0
bin	0.0001334	0
bin	0.0001336	0
bin	0.0001338	0
bin	0.000134	0
bin	0.0001342	0
bin	0.0001344	0
bin	0.0001346	0
bin	0.0001348	0
bin	0.000135	0
bin	0.0001352	0
bin	0.0001354	0
bin	0.0001356	0
bin	0.0001358	0
bin	0.000136	0
bin	0.0001362	0
bin	0.0001364	0
bin	0.0001366	0
bin	0.0001368	940
bin	0.000137	0
bin	0.0001372	0
bin	0.0001374	0
bin	0.0001376	0
bin	0.0001378	0
bin	0.000138	0
bin	0.0001382	0
bin	0.0001384	0
bin	0.0001386	0
bin	0.0001388	0
bin	0.000139	0
bin	0.0001392	0
bin	0.0001394	0
bin	0.0001396	0
bin	0.0001398	0
statistic NetworkModified.host[0].wlan[0].mac.dcf frameSequenceNumPackets:histogram
field count 1007
field mean 2
field stddev 0
field min 2
field max 2
field sum 2014
field sqrsum 4028
attr source frameSequenceNumPackets(frameSequenceFinished)
attr title "frame sequences: number of packets, histogram"
bin	-inf	0
bin	1	0
bin	2	1007
bin	3	0
scalar NetworkModified.host[0].wlan[0].mac.dcf packetReceivedFromPeer:count 67
attr interpolationmode none
attr title "packets received, count"
scalar NetworkModified.host[0].wlan[0].mac.dcf packetReceivedFromPeer:sum(packetBytes) 938
attr interpolationmode none
attr title "packets received, sum(packetBytes)"
scalar NetworkModified.host[0].wlan[0].mac.dcf packetReceivedFromPeerUnicast:count 67
attr interpolationmode none
attr source ieee80211Unicast(packetReceivedFromPeer)
attr title "packets received: unicast, count"
scalar NetworkModified.host[0].wlan[0].mac.dcf packetReceivedFromPeerUnicast:sum(packetBytes) 938
attr interpolationmode none
attr source ieee80211Unicast(packetReceivedFromPeer)
attr title "packets received: unicast, sum(packetBytes)"
scalar NetworkModified.host[0].wlan[0].mac.dcf packetReceivedFromPeerMulticast:count 0
attr interpolationmode none
attr source ieee80211Multicast(packetReceivedFromPeer)
attr title "packets received: multicast, count"
scalar NetworkModified.host[0].wlan[0].mac.dcf packetReceivedFromPeerMulticast:sum(packetBytes) 0
attr interpolationmode none
attr source ieee80211Multicast(packetReceivedFromPeer)
attr title "packets received: multicast, sum(packetBytes)"
scalar NetworkModified.host[0].wlan[0].mac.dcf packetReceivedFromPeerBroadcast:count 0
attr interpolationmode none
attr source ieee80211Broadcast(packetReceivedFromPeer)
attr title "packets received: broadcast, count"
scalar NetworkModified.host[0].wlan[0].mac.dcf packetReceivedFromPeerBroadcast:sum(packetBytes) 0
attr interpolationmode none
attr source ieee80211Broadcast(packetReceivedFromPeer)
attr title "packets received: broadcast, sum(packetBytes)"
scalar NetworkModified.host[0].wlan[0].mac.dcf packetReceivedFromPeerWithRetry:count 0
attr interpolationmode none
attr source ieee80211Retry(packetReceivedFromPeer)
attr title "packets received: with retry, count"
scalar NetworkModified.host[0].wlan[0].mac.dcf packetReceivedFromPeerWithRetry:sum(packetBytes) 0
attr interpolationmode none
attr source ieee80211Retry(packetReceivedFromPeer)
attr title "packets received: with retry, sum(packetBytes)"
scalar NetworkModified.host[0].wlan[0].mac.dcf packetReceivedFromPeerWithoutRetry:count 67
attr interpolationmode none
attr source ieee80211NotRetry(packetReceivedFromPeer)
attr title "packets received: without retry, count"
scalar NetworkModified.host[0].wlan[0].mac.dcf packetReceivedFromPeerWithoutRetry:sum(packetBytes) 938
attr interpolationmode none
attr source ieee80211NotRetry(packetReceivedFromPeer)
attr title "packets received: without retry, sum(packetBytes)"
scalar NetworkModified.host[0].wlan[0].mac.dcf packetSentToPeer:count 1007
attr interpolationmode none
attr title "packets sent, count"
scalar NetworkModified.host[0].wlan[0].mac.dcf packetSentToPeer:sum(packetBytes) 163134
attr interpolationmode none
attr title "packets sent, sum(packetBytes)"
scalar NetworkModified.host[0].wlan[0].mac.dcf packetSentToPeerUnicast:count 1007
attr interpolationmode none
attr source ieee80211Unicast(packetSentToPeer)
attr title "packets sent: unicast, count"
scalar NetworkModified.host[0].wlan[0].mac.dcf packetSentToPeerUnicast:sum(packetBytes) 163134
attr interpolationmode none
attr source ieee80211Unicast(packetSentToPeer)
attr title "packets sent: unicast, sum(packetBytes)"
scalar NetworkModified.host[0].wlan[0].mac.dcf packetSentToPeerMulticast:count 0
attr interpolationmode none
attr source ieee80211Multicast(packetSentToPeer)
attr title "packets sent: multicast, count"
scalar NetworkModified.host[0].wlan[0].mac.dcf packetSentToPeerMulticast:sum(packetBytes) 0
attr interpolationmode none
attr source ieee80211Multicast(packetSentToPeer)
attr title "packets sent: multicast, sum(packetBytes)"
scalar NetworkModified.host[0].wlan[0].mac.dcf packetSentToPeerBroadcast:count 0
attr interpolationmode none
attr source ieee80211Broadcast(packetSentToPeer)
attr title "packets sent: broadcast , count"
scalar NetworkModified.host[0].wlan[0].mac.dcf packetSentToPeerBroadcast:sum(packetBytes) 0
attr interpolationmode none
attr source ieee80211Broadcast(packetSentToPeer)
attr title "packets sent: broadcast , sum(packetBytes)"
scalar NetworkModified.host[0].wlan[0].mac.dcf packetSentToPeerWithRetry:count 817
attr interpolationmode none
attr source ieee80211Retry(packetSentToPeer)
attr title "packets sent: with retry, count"
scalar NetworkModified.host[0].wlan[0].mac.dcf packetSentToPeerWithRetry:sum(packetBytes) 132354
attr interpolationmode none
attr source ieee80211Retry(packetSentToPeer)
attr title "packets sent: with retry, sum(packetBytes)"
scalar NetworkModified.host[0].wlan[0].mac.dcf packetSentToPeerWithoutRetry:count 190
attr interpolationmode none
attr source ieee80211NotRetry(packetSentToPeer)
attr title "packets sent: without retry, count"
scalar NetworkModified.host[0].wlan[0].mac.dcf packetSentToPeerWithoutRetry:sum(packetBytes) 30780
attr interpolationmode none
attr source ieee80211NotRetry(packetSentToPeer)
attr title "packets sent: without retry, sum(packetBytes)"
scalar NetworkModified.host[0].wlan[0].mac.dcf packetDrop:count 604
attr interpolationmode none
attr source packetDropped
attr title "packet drops, count"
scalar NetworkModified.host[0].wlan[0].mac.dcf packetDrop:sum(packetBytes) 80532
attr interpolationmode none
attr source packetDropped
attr title "packet drops, sum(packetBytes)"
scalar NetworkModified.host[0].wlan[0].mac.dcf packetDropNotAddressedToUs:count 273
attr interpolationmode none
attr source packetDropReasonIsNotAddressedToUs(packetDropped)
attr title "packet drops: not addressed to us, count"
scalar NetworkModified.host[0].wlan[0].mac.dcf packetDropNotAddressedToUs:sum(packetBytes) 26910
attr interpolationmode none
attr source packetDropReasonIsNotAddressedToUs(packetDropped)
attr title "packet drops: not addressed to us, sum(packetBytes)"
scalar NetworkModified.host[0].wlan[0].mac.dcf packetDropQueueOverflow:count 209
attr interpolationmode none
attr source packetDropReasonIsQueueOverflow(packetDropped)
attr title "packet drops: queue overflow, count"
scalar NetworkModified.host[0].wlan[0].mac.dcf packetDropQueueOverflow:sum(packetBytes) 33858
attr interpolationmode none
attr source packetDropReasonIsQueueOverflow(packetDropped)
attr title "packet drops: queue overflow, sum(packetBytes)"
scalar NetworkModified.host[0].wlan[0].mac.dcf packetDropRetryLimitReached:count 122
attr interpolationmode none
attr source packetDropReasonIsRetryLimitReached(packetDropped)
attr title "packet drops: retry limit reached, count"
scalar NetworkModified.host[0].wlan[0].mac.dcf packetDropRetryLimitReached:sum(packetBytes) 19764
attr interpolationmode none
attr source packetDropReasonIsRetryLimitReached(packetDropped)
attr title "packet drops: retry limit reached, sum(packetBytes)"
scalar NetworkModified.host[0].wlan[0].mac.dcf linkBroken:count 122
attr interpolationmode none
attr title "link breaks, count"
scalar NetworkModified.host[0].wlan[0].mac packetReceivedFromLower:count 341
attr interpolationmode none
attr title "packets received from lower layer, count"
scalar NetworkModified.host[0].wlan[0].mac packetReceivedFromLower:sum(packetBytes) 28010
attr interpolationmode none
attr title "packets received from lower layer, sum(packetBytes)"
scalar NetworkModified.host[0].wlan[0].mac packetSentToLower:count 1007
attr interpolationmode none
attr title "packets sent to lower layer, count"
scalar NetworkModified.host[0].wlan[0].mac packetSentToLower:sum(packetBytes) 163134
attr interpolationmode none
attr title "packets sent to lower layer, sum(packetBytes)"
scalar NetworkModified.host[0].wlan[0].mac packetReceivedFromUpper:count 500
attr interpolationmode none
attr title "packets received from upper layer, count"
scalar NetworkModified.host[0].wlan[0].mac packetReceivedFromUpper:sum(packetBytes) 67000
attr interpolationmode none
attr title "packets received from upper layer, sum(packetBytes)"
scalar NetworkModified.host[0].wlan[0].mac packetSentToUpper:count 0
attr interpolationmode none
attr title "packets sent to upper layer, count"
scalar NetworkModified.host[0].wlan[0].mac packetSentToUpper:sum(packetBytes) 0
attr interpolationmode none
attr title "packets sent to upper layer, sum(packetBytes)"
scalar NetworkModified.host[0].wlan[0].mac packetDrop:count 605
attr interpolationmode none
attr source packetDropped
attr title "packet drops, count"
scalar NetworkModified.host[0].wlan[0].mac packetDrop:sum(packetBytes) 80694
attr interpolationmode none
attr source packetDropped
attr title "packet drops, sum(packetBytes)"
scalar NetworkModified.host[0].wlan[0].mac packetDropIncorrectlyReceived:count 1
attr interpolationmode none
attr source packetDropReasonIsIncorrectlyReceived(packetDropped)
attr title "packet drops: incorrectly received, count"
scalar NetworkModified.host[0].wlan[0].mac packetDropIncorrectlyReceived:sum(packetBytes) 162
attr interpolationmode none
attr source packetDropReasonIsIncorrectlyReceived(packetDropped)
attr title "packet drops: incorrectly received, sum(packetBytes)"
scalar NetworkModified.host[0].wlan[0].mac packetDropNotAddressedToUs:count 273
attr interpolationmode none
attr source packetDropReasonIsNotAddressedToUs(packetDropped)
attr title "packet drops: not addressed to us, count"
scalar NetworkModified.host[0].wlan[0].mac packetDropNotAddressedToUs:sum(packetBytes) 26910
attr interpolationmode none
attr source packetDropReasonIsNotAddressedToUs(packetDropped)
attr title "packet drops: not addressed to us, sum(packetBytes)"
scalar NetworkModified.host[0].wlan[0].mac packetDropQueueOverflow:count 209
attr interpolationmode none
attr source packetDropReasonIsQueueOverflow(packetDropped)
attr title "packet drops: queue overflow, count"
scalar NetworkModified.host[0].wlan[0].mac packetDropQueueOverflow:sum(packetBytes) 33858
attr interpolationmode none
attr source packetDropReasonIsQueueOverflow(packetDropped)
attr title "packet drops: queue overflow, sum(packetBytes)"
scalar NetworkModified.host[0].wlan[0].mac packetDropRetryLimitReached:count 122
attr interpolationmode none
attr source packetDropReasonIsRetryLimitReached(packetDropped)
attr title "packet drops: retry limit reached, count"
scalar NetworkModified.host[0].wlan[0].mac packetDropRetryLimitReached:sum(packetBytes) 19764
attr interpolationmode none
attr source packetDropReasonIsRetryLimitReached(packetDropped)
attr title "packet drops: retry limit reached, sum(packetBytes)"
scalar NetworkModified.host[0].wlan[0].mac packetDropDuplicateDetected:count 0
attr interpolationmode none
attr source packetDropReasonIsDuplicateDetected(packetDropped)
attr title "packet drops: duplicate detected, count"
scalar NetworkModified.host[0].wlan[0].mac packetDropDuplicateDetected:sum(packetBytes) 0
attr interpolationmode none
attr source packetDropReasonIsDuplicateDetected(packetDropped)
attr title "packet drops: duplicate detected, sum(packetBytes)"
scalar NetworkModified.host[0].wlan[0].mac packetDropOther:count 0
attr interpolationmode none
attr source packetDropReasonIsOther(packetDropped)
attr title "packet drops: other, count"
scalar NetworkModified.host[0].wlan[0].mac packetDropOther:sum(packetBytes) 0
attr interpolationmode none
attr source packetDropReasonIsOther(packetDropped)
attr title "packet drops: other, sum(packetBytes)"
scalar NetworkModified.host[0].wlan[0].mac linkBroken:count 122
attr interpolationmode none
attr title "link breaks, count"
statistic NetworkModified.host[0].wlan[0].radio radioChannel:histogram
field count 1
field mean 0
field stddev -nan
field min 0
field max 0
field sum 0
field sqrsum 0
attr interpolationmode sample-hold
attr source radioChannelChanged
attr title "Radio channel, histogram"
bin	-inf	0
bin	-0.5	0
bin	-0.48	0
bin	-0.46	0
bin	-0.44	0
bin	-0.42	0
bin	-0.4	0
bin	-0.38	0
bin	-0.36	0
bin	-0.34	0
bin	-0.32	0
bin	-0.3	0
bin	-0.28	0
bin	-0.26	0
bin	-0.24	0
bin	-0.22	0
bin	-0.2	0
bin	-0.18	0
bin	-0.16	0
bin	-0.14	0
bin	-0.12	0
bin	-0.1	0
bin	-0.08	0
bin	-0.06	0
bin	-0.04	0
bin	-0.02	0
bin	0	1
bin	0.02	0
bin	0.04	0
bin	0.06	0
bin	0.08	0
bin	0.1	0
bin	0.12	0
bin	0.14	0
bin	0.16	0
bin	0.18	0
bin	0.2	0
bin	0.22	0
bin	0.24	0
bin	0.26	0
bin	0.28	0
bin	0.3	0
bin	0.32	0
bin	0.34	0
bin	0.36	0
bin	0.38	0
bin	0.4	0
bin	0.42	0
bin	0.44	0
bin	0.46	0
bin	0.48	0
bin	0.5	0
scalar NetworkModified.host[0].wlan[0].radio radioMode:count 2017
attr interpolationmode sample-hold
attr source radioModeChanged
attr title "Radio mode, count"
scalar NetworkModified.host[0].wlan[0].radio receptionState:count 2698
attr interpolationmode sample-hold
attr source receptionStateChanged
attr title "Radio reception state, count"
scalar NetworkModified.host[0].wlan[0].radio transmissionState:count 4028
attr interpolationmode sample-hold
attr source transmissionStateChanged
attr title "Radio transmission state, count"
statistic NetworkModified.host[0].wlan[0].radio minSnir:histogram
field count 341
field mean 3139.392690215
field stddev 9194.3233920476
field min 2.103880970765
field max 116571.00452488
field sum 1070532.9073633
field sqrsum 32102921280.779
attr source minimumSnir(packetSentToUpper)
attr title "Min SNIR, histogram"
bin	-inf	0
bin	0	260
bin	2000	30
bin	4000	16
bin	6000	6
bin	8000	6
bin	10000	4
bin	12000	4
bin	14000	2
bin	16000	2
bin	18000	3
bin	20000	1
bin	22000	0
bin	24000	1
bin	26000	0
bin	28000	0
bin	30000	1
bin	32000	1
bin	34000	0
bin	36000	0
bin	38000	0
bin	40000	0
bin	42000	0
bin	44000	0
bin	46000	0
bin	48000	1
bin	50000	0
bin	52000	0
bin	54000	1
bin	56000	0
bin	58000	0
bin	60000	0
bin	62000	0
bin	64000	0
bin	66000	0
bin	68000	0
bin	70000	1
bin	72000	0
bin	74000	0
bin	76000	0
bin	78000	0
bin	80000	0
bin	82000	0
bin	84000	0
bin	86000	0
bin	88000	0
bin	90000	0
bin	92000	0
bin	94000	0
bin	96000	0
bin	98000	0
bin	100000	0
bin	102000	0
bin	104000	0
bin	106000	0
bin	108000	0
bin	110000	0
bin	112000	0
bin	114000	0
bin	116000	1
bin	118000	0
bin	120000	0
bin	122000	0
bin	124000	0
bin	126000	0
bin	128000	0
bin	130000	0
bin	132000	0
bin	134000	0
bin	136000	0
bin	138000	0
bin	140000	0
bin	142000	0
bin	144000	0
bin	146000	0
statistic NetworkModified.host[0].wlan[0].radio packetErrorRate:histogram
field count 341
field mean 0.0029325513314685
field stddev 0.054153036106746
field min 0
field max 1
field sum 1.0000000040308
field sqrsum 1
attr source packetErrorRate(packetSentToUpper)
attr title "Packet error rate, histogram"
bin	-inf	0
bin	-0.5	0
bin	-0.48	0
bin	-0.46	0
bin	-0.44	0
bin	-0.42	0
bin	-0.4	0
bin	-0.38	0
bin	-0.36	0
bin	-0.34	0
bin	-0.32	0
bin	-0.3	0
bin	-0.28	0
bin	-0.26	0
bin	-0.24	0
bin	-0.22	0
bin	-0.2	0
bin	-0.18	0
bin	-0.16	0
bin	-0.14	0
bin	-0.12	0
bin	-0.1	0
bin	-0.08	0
bin	-0.06	0
bin	-0.04	0
bin	-0.02	0
bin	0	340
bin	0.02	0
bin	0.04	0
bin	0.06	0
bin	0.08	0
bin	0.1	0
bin	0.12	0
bin	0.14	0
bin	0.16	0
bin	0.18	0
bin	0.2	0
bin	0.22	0
bin	0.24	0
bin	0.26	0
bin	0.28	0
bin	0.3	0
bin	0.32	0
bin	0.34	0
bin	0.36	0
bin	0.38	0
bin	0.4	0
bin	0.42	0
bin	0.44	0
bin	0.46	0
bin	0.48	0
bin	0.5	0
bin	0.52	0
bin	0.54	0
bin	0.56	0
bin	0.58	0
bin	0.6	0
bin	0.62	0
bin	0.64	0
bin	0.66	0
bin	0.68	0
bin	0.7	0
bin	0.72	0
bin	0.74	0
bin	0.76	0
bin	0.78	0
bin	0.8	0
bin	0.82	0
bin	0.84	0
bin	0.86	0
bin	0.88	0
bin	0.9	0
bin	0.92	0
bin	0.94	0
bin	0.96	0
bin	0.98	0
bin	1	1
bin	1.02	0
statistic NetworkModified.host[0].wlan[0].radio bitErrorRate:histogram
field count 0
field mean -nan
field stddev -nan
field min -nan
field max -nan
field sum 0
field sqrsum 0
attr source bitErrorRate(packetSentToUpper)
attr title "Bit error rate, histogram"
bin	-inf	0
bin	0	0
bin	1	0
statistic NetworkModified.host[0].wlan[0].radio symbolErrorRate:histogram
field count 0
field mean -nan
field stddev -nan
field min -nan
field max -nan
field sum 0
field sqrsum 0
attr source symbolErrorRate(packetSentToUpper)
attr title "Symbol error rate, histogram"
bin	-inf	0
bin	0	0
bin	1	0
scalar NetworkModified.host[0].udp packetReceived:count 0
attr interpolationmode none
attr source packetReceived
attr title "packets received, count"
scalar NetworkModified.host[0].udp packetReceived:sum(packetBytes) 0
attr interpolationmode none
attr source packetReceived
attr title "packets received, sum(packetBytes)"
scalar NetworkModified.host[0].udp packetSent:count 500
attr interpolationmode none
attr source packetSent
attr title "packets sent, count"
scalar NetworkModified.host[0].udp packetSent:sum(packetBytes) 54000
attr interpolationmode none
attr source packetSent
attr title "packets sent, sum(packetBytes)"
scalar NetworkModified.host[0].udp passedUpPk:count 0
attr interpolationmode none
attr source packetSentToUpper
attr title "packets passed up, count"
scalar NetworkModified.host[0].udp droppedPkWrongPort:count 0
attr interpolationmode none
attr source packetDropReasonIsNoPortFound(packetDropped)
attr title "packets dropped (wrong port), count"
scalar NetworkModified.host[0].udp droppedPkBadChecksum:count 0
attr interpolationmode none
attr source packetDropReasonIsIncorrectlyReceived(packetDropped)
attr title "packets dropped (checksum error), count"
scalar NetworkModified.host[0].app[0] "packets sent" 500
scalar NetworkModified.host[0].app[0] "packets received" 0
scalar NetworkModified.host[0].app[0] packetReceived:count 0
attr interpolationmode none
attr source packetReceived
attr title "packets received, count"
scalar NetworkModified.host[0].app[0] packetReceived:sum(packetBytes) 0
attr interpolationmode none
attr source packetReceived
attr title "packets received, sum(packetBytes)"
statistic NetworkModified.host[0].app[0] rcvdPkLifetime:stats
field count 0
field mean -nan
field stddev -nan
field min -nan
field max -nan
field sum 0
field sqrsum 0
attr interpolationmode none
attr source dataAge(packetReceived)
attr title "received packet lifetime, stats"
attr unit s
scalar NetworkModified.host[0].app[0] packetSent:count 500
attr interpolationmode none
attr source packetSent
attr title "packets sent, count"
scalar NetworkModified.host[0].app[0] packetSent:sum(packetBytes) 50000
attr interpolationmode none
attr source packetSent
attr title "packets sent, sum(packetBytes)"
scalar NetworkModified.host[1].lo[0].lo rcvdPkFromHl:count 0
attr interpolationmode none
attr source packetReceivedFromUpper
attr title "packets received from higher layer, count"
scalar NetworkModified.host[1].lo[0].lo rcvdPkFromHl:sum(packetBytes) 0
attr interpolationmode none
attr source packetReceivedFromUpper
attr title "packets received from higher layer, sum(packetBytes)"
scalar NetworkModified.host[1].lo[0].lo passedUpPk:count 0
attr interpolationmode none
attr source packetSentToUpper
attr title "packets passed to higher layer, count"
scalar NetworkModified.host[1].lo[0].lo passedUpPk:sum(packetBytes) 0
attr interpolationmode none
attr source packetSentToUpper
attr title "packets passed to higher layer, sum(packetBytes)"
scalar NetworkModified.host[1].wlan[0].mac.dcf.channelAccess.pendingQueue packetPopped:count 257
attr interpolationmode none
attr title "packet popped, count"
scalar NetworkModified.host[1].wlan[0].mac.dcf.channelAccess.pendingQueue packetPopped:sum(packetBytes) 41634
attr interpolationmode none
attr title "packet popped, sum(packetBytes)"
statistic NetworkModified.host[1].wlan[0].mac.dcf.channelAccess.pendingQueue queueingTime:histogram
field count 257
field mean 0.88176879165098
field stddev 1.4444237171823
field min 0
field max 4.870469474181
field sum 226.6145794543
field sqrsum 733.92979183412
attr interpolationmode none
attr source queueingTime(packetPopped)
attr title "queueing times, histogram"
attr unit s
bin	-inf	0
bin	0	165
bin	0.06912	0
bin	0.13824	1
bin	0.20736	3
bin	0.27648	2
bin	0.3456	1
bin	0.41472	1
bin	0.48384	1
bin	0.55296	1
bin	0.62208	2
bin	0.6912	1
bin	0.76032	2
bin	0.82944	2
bin	0.89856	1
bin	0.96768	1
bin	1.0368	1
bin	1.10592	1
bin	1.17504	2
bin	1.24416	0
bin	1.31328	2
bin	1.3824	1
bin	1.45152	2
bin	1.52064	2
bin	1.58976	1
bin	1.65888	1
bin	1.728	2
bin	1.79712	2
bin	1.86624	0
bin	1.93536	2
bin	2.00448	1
bin	2.0736	2
bin	2.14272	1
bin	2.21184	1
bin	2.28096	2
bin	2.35008	1
bin	2.4192	1
bin	2.48832	1
bin	2.55744	1
bin	2.62656	2
bin	2.69568	1
bin	2.7648	1
bin	2.83392	2
bin	2.90304	1
bin	2.97216	1
bin	3.04128	1
bin	3.1104	1
bin	3.17952	2
bin	3.24864	1
bin	3.31776	2
bin	3.38688	1
bin	3.456	2
bin	3.52512	1
bin	3.59424	1
bin	3.66336	1
bin	3.73248	1
bin	3.8016	1
bin	3.87072	1
bin	3.93984	2
bin	4.00896	1
bin	4.07808	1
bin	4.1472	2
bin	4.21632	2
bin	4.28544	2
bin	4.35456	1
bin	4.42368	1
bin	4.4928	1
bin	4.56192	2
bin	4.63104	1
bin	4.70016	1
bin	4.76928	1
bin	4.8384	1
bin	4.90752	0
scalar NetworkModified.host[1].wlan[0].mac.dcf.channelAccess.pendingQueue queueLength:max 101
attr interpolationmode sample-hold
attr source "count(packetPushed) - count(packetPopped) - count(packetRemoved) - count(packetDropped)"
attr title "queue length, max"
scalar NetworkModified.host[1].wlan[0].mac.dcf.channelAccess.pendingQueue queueLength:timeavg 53.434656021919
attr interpolationmode sample-hold
attr source "count(packetPushed) - count(packetPopped) - count(packetRemoved) - count(packetDropped)"
attr title "queue length, timeavg"
scalar NetworkModified.host[1].wlan[0].mac.dcf.channelAccess.pendingQueue packetPushed:count 500
attr interpolationmode none
attr title "packet pushed, count"
scalar NetworkModified.host[1].wlan[0].mac.dcf.channelAccess.pendingQueue packetPushed:sum(packetBytes) 81000
attr interpolationmode none
attr title "packet pushed, sum(packetBytes)"
scalar NetworkModified.host[1].wlan[0].mac.dcf.channelAccess.pendingQueue packetDropQueueOverflow:count 144
attr interpolationmode none
attr source packetDropReasonIsQueueOverflow(packetDropped)
attr title "packet drops: queue overflow, count"
scalar NetworkModified.host[1].wlan[0].mac.dcf.channelAccess.pendingQueue packetDropQueueOverflow:sum(packetBytes) 23328
attr interpolationmode none
attr source packetDropReasonIsQueueOverflow(packetDropped)
attr title "packet drops: queue overflow, sum(packetBytes)"
scalar NetworkModified.host[1].wlan[0].mac.dcf.channelAccess.pendingQueue packetRemoved:count 0
attr interpolationmode none
attr title "packets removed, count"
scalar NetworkModified.host[1].wlan[0].mac.dcf.channelAccess.pendingQueue packetRemoved:sum(packetBytes) 0
attr interpolationmode none
attr title "packets removed, sum(packetBytes)"
statistic NetworkModified.host[1].wlan[0].mac.dcf.channelAccess.inProgressFrames queueingTime:histogram
field count 255
field mean 0.051769028933427
field stddev 0.065688756369345
field min 0.000126045708
field max 0.229708748396
field sum 13.201102378024
field sqrsum 1.7794214801522
attr interpolationmode none
attr source queueingTime(packetDequeued)
attr title "queueing times, histogram"
bin	-inf	0
bin	0	140
bin	0.005	5
bin	0.01	2
bin	0.015	1
bin	0.02	3
bin	0.025	0
bin	0.03	3
bin	0.035	3
bin	0.04	2
bin	0.045	3
bin	0.05	0
bin	0.055	0
bin	0.06	0
bin	0.065	1
bin	0.07	0
bin	0.075	0
bin	0.08	1
bin	0.085	4
bin	0.09	0
bin	0.095	4
bin	0.1	3
bin	0.105	3
bin	0.11	4
bin	0.115	4
bin	0.12	2
bin	0.125	8
bin	0.13	6
bin	0.135	10
bin	0.14	11
bin	0.145	11
bin	0.15	6
bin	0.155	5
bin	0.16	5
bin	0.165	0
bin	0.17	0
bin	0.175	2
bin	0.18	0
bin	0.185	1
bin	0.19	1
bin	0.195	0
bin	0.2	0
bin	0.205	0
bin	0.21	0
bin	0.215	0
bin	0.22	0
bin	0.225	1
bin	0.23	0
bin	0.235	0
bin	0.24	0
bin	0.245	0
bin	0.25	0
bin	0.255	0
bin	0.26	0
bin	0.265	0
bin	0.27	0
bin	0.275	0
bin	0.28	0
bin	0.285	0
bin	0.29	0
scalar NetworkModified.host[1].wlan[0].mac.dcf.channelAccess.inProgressFrames queueLength:max 2
attr interpolationmode sample-hold
attr source "count(packetEnqueued) - count(packetDequeued)"
attr title "queue length, max"
scalar NetworkModified.host[1].wlan[0].mac.dcf.channelAccess.inProgressFrames queueLength:timeavg 1.3298600452695
attr interpolationmode sample-hold
attr source "count(packetEnqueued) - count(packetDequeued)"
attr title "queue length, timeavg"
scalar NetworkModified.host[1].wlan[0].mac.dcf.channelAccess.contention channelAccessGranted:count 924
attr title "channel access granted, count"
scalar NetworkModified.host[1].wlan[0].mac.dcf.channelAccess.contention stateChanged:count 12166
attr interpolationmode none
attr title "contention state changed, count"
scalar NetworkModified.host[1].wlan[0].mac.dcf.channelAccess channelOwnershipChanged:count 1848
attr interpolationmode sample-hold
attr title "channel ownership, count"
scalar NetworkModified.host[1].wlan[0].mac.dcf.originatorMacDataService packetAggregated:count 0
attr title "packets aggregated, count"
scalar NetworkModified.host[1].wlan[0].mac.dcf.originatorMacDataService packetFragmented:count 0
attr title "packets fragmented, count"
scalar NetworkModified.host[1].wlan[0].mac.dcf.recipientMacDataService packetDeaggregated:count 0
attr title "packets deaggregated, count"
scalar NetworkModified.host[1].wlan[0].mac.dcf.recipientMacDataService packetDefragmented:count 0
attr title "packets defragmented, count"
scalar NetworkModified.host[1].wlan[0].mac.dcf.recipientMacDataService packetDropDuplicateDetected:count 0
attr interpolationmode none
attr source packetDropReasonIsDuplicateDetected(packetDropped)
attr title "packet drops: duplicate detected, count"
scalar NetworkModified.host[1].wlan[0].mac.dcf.recipientMacDataService packetDropDuplicateDetected:sum(packetBytes) 0
attr interpolationmode none
attr source packetDropReasonIsDuplicateDetected(packetDropped)
attr title "packet drops: duplicate detected, sum(packetBytes)"
scalar NetworkModified.host[1].wlan[0].mac.dcf.recoveryProcedure retryLimitReached:count 96
attr title "retry limit reached, count"
scalar NetworkModified.host[1].wlan[0].mac.dcf frameSequenceFinished:count 924
attr title "finished frame sequences, count"
statistic NetworkModified.host[1].wlan[0].mac.dcf frameSequenceDuration:histogram
field count 924
field mean 0.00028828776224026
field stddev 0.0046533599399666
field min 0.000126045708
field max 0.141585033111
field sum 0.26637789231
field sqrsum 0.020063212795092
attr source frameSequenceDuration(frameSequenceFinished)
attr title "frame sequence durations, histogram"
bin	-inf	0
bin	0	923
bin	0.002	0
bin	0.004	0
bin	0.006	0
bin	0.008	0
bin	0.01	0
bin	0.012	0
bin	0.014	0
bin	0.016	0
bin	0.018	0
bin	0.02	0
bin	0.022	0
bin	0.024	0
bin	0.026	0
bin	0.028	0
bin	0.03	0
bin	0.032	0
bin	0.034	0
bin	0.036	0
bin	0.038	0
bin	0.04	0
bin	0.042	0
bin	0.044	0
bin	0.046	0
bin	0.048	0
bin	0.05	0
bin	0.052	0
bin	0.054	0
bin	0.056	0
bin	0.058	0
bin	0.06	0
bin	0.062	0
bin	0.064	0
bin	0.066	0
bin	0.068	0
bin	0.07	0
bin	0.072	0
bin	0.074	0
bin	0.076	0
bin	0.078	0
bin	0.08	0
bin	0.082	0
bin	0.084	0
bin	0.086	0
bin	0.088	0
bin	0.09	0
bin	0.092	0
bin	0.094	0
bin	0.096	0
bin	0.098	0
bin	0.1	0
bin	0.102	0
bin	0.104	0
bin	0.106	0
bin	0.108	0
bin	0.11	0
bin	0.112	0
bin	0.114	0
bin	0.116	0
bin	0.118	0
bin	0.12	0
bin	0.122	0
bin	0.124	0
bin	0.126	0
bin	0.128	0
bin	0.13	0
bin	0.132	0
bin	0.134	0
bin	0.136	0
bin	0.138	0
bin	0.14	1
bin	0.142	0
statistic NetworkModified.host[1].wlan[0].mac.dcf frameSequenceNumPackets:histogram
field count 924
field mean 2
field stddev 0
field min 2
field max 2
field sum 1848
field sqrsum 3696
attr source frameSequenceNumPackets(frameSequenceFinished)
attr title "frame sequences: number of packets, histogram"
bin	-inf	0
bin	1	0
bin	2	924
bin	3	0
scalar NetworkModified.host[1].wlan[0].mac.dcf packetReceivedFromPeer:count 159
attr interpolationmode none
attr title "packets received, count"
scalar NetworkModified.host[1].wlan[0].mac.dcf packetReceivedFromPeer:sum(packetBytes) 2226
attr interpolationmode none
attr title "packets received, sum(packetBytes)"
scalar NetworkModified.host[1].wlan[0].mac.dcf packetReceivedFromPeerUnicast:count 159
attr interpolationmode none
attr source ieee80211Unicast(packetReceivedFromPeer)
attr title "packets received: unicast, count"
scalar NetworkModified.host[1].wlan[0].mac.dcf packetReceivedFromPeerUnicast:sum(packetBytes) 2226
attr interpolationmode none
attr source ieee80211Unicast(packetReceivedFromPeer)
attr title "packets received: unicast, sum(packetBytes)"
scalar NetworkModified.host[1].wlan[0].mac.dcf packetReceivedFromPeerMulticast:count 0
attr interpolationmode none
attr source ieee80211Multicast(packetReceivedFromPeer)
attr title "packets received: multicast, count"
scalar NetworkModified.host[1].wlan[0].mac.dcf packetReceivedFromPeerMulticast:sum(packetBytes) 0
attr interpolationmode none
attr source ieee80211Multicast(packetReceivedFromPeer)
attr title "packets received: multicast, sum(packetBytes)"
scalar NetworkModified.host[1].wlan[0].mac.dcf packetReceivedFromPeerBroadcast:count 0
attr interpolationmode none
attr source ieee80211Broadcast(packetReceivedFromPeer)
attr title "packets received: broadcast, count"
scalar NetworkModified.host[1].wlan[0].mac.dcf packetReceivedFromPeerBroadcast:sum(packetBytes) 0
attr interpolationmode none
attr source ieee80211Broadcast(packetReceivedFromPeer)
attr title "packets received: broadcast, sum(packetBytes)"
scalar NetworkModified.host[1].wlan[0].mac.dcf packetReceivedFromPeerWithRetry:count 0
attr interpolationmode none
attr source ieee80211Retry(packetReceivedFromPeer)
attr title "packets received: with retry, count"
scalar NetworkModified.host[1].wlan[0].mac.dcf packetReceivedFromPeerWithRetry:sum(packetBytes) 0
attr interpolationmode none
attr source ieee80211Retry(packetReceivedFromPeer)
attr title "packets received: with retry, sum(packetBytes)"
scalar NetworkModified.host[1].wlan[0].mac.dcf packetReceivedFromPeerWithoutRetry:count 159
attr interpolationmode none
attr source ieee80211NotRetry(packetReceivedFromPeer)
attr title "packets received: without retry, count"
scalar NetworkModified.host[1].wlan[0].mac.dcf packetReceivedFromPeerWithoutRetry:sum(packetBytes) 2226
attr interpolationmode none
attr source ieee80211NotRetry(packetReceivedFromPeer)
attr title "packets received: without retry, sum(packetBytes)"
scalar NetworkModified.host[1].wlan[0].mac.dcf packetSentToPeer:count 924
attr interpolationmode none
attr title "packets sent, count"
scalar NetworkModified.host[1].wlan[0].mac.dcf packetSentToPeer:sum(packetBytes) 149688
attr interpolationmode none
attr title "packets sent, sum(packetBytes)"
scalar NetworkModified.host[1].wlan[0].mac.dcf packetSentToPeerUnicast:count 924
attr interpolationmode none
attr source ieee80211Unicast(packetSentToPeer)
attr title "packets sent: unicast, count"
scalar NetworkModified.host[1].wlan[0].mac.dcf packetSentToPeerUnicast:sum(packetBytes) 149688
attr interpolationmode none
attr source ieee80211Unicast(packetSentToPeer)
attr title "packets sent: unicast, sum(packetBytes)"
scalar NetworkModified.host[1].wlan[0].mac.dcf packetSentToPeerMulticast:count 0
attr interpolationmode none
attr source ieee80211Multicast(packetSentToPeer)
attr title "packets sent: multicast, count"
scalar NetworkModified.host[1].wlan[0].mac.dcf packetSentToPeerMulticast:sum(packetBytes) 0
attr interpolationmode none
attr source ieee80211Multicast(packetSentToPeer)
attr title "packets sent: multicast, sum(packetBytes)"
scalar NetworkModified.host[1].wlan[0].mac.dcf packetSentToPeerBroadcast:count 0
attr interpolationmode none
attr source ieee80211Broadcast(packetSentToPeer)
attr title "packets sent: broadcast , count"
scalar NetworkModified.host[1].wlan[0].mac.dcf packetSentToPeerBroadcast:sum(packetBytes) 0
attr interpolationmode none
attr source ieee80211Broadcast(packetSentToPeer)
attr title "packets sent: broadcast , sum(packetBytes)"
scalar NetworkModified.host[1].wlan[0].mac.dcf packetSentToPeerWithRetry:count 668
attr interpolationmode none
attr source ieee80211Retry(packetSentToPeer)
attr title "packets sent: with retry, count"
scalar NetworkModified.host[1].wlan[0].mac.dcf packetSentToPeerWithRetry:sum(packetBytes) 108216
attr interpolationmode none
attr source ieee80211Retry(packetSentToPeer)
attr title "packets sent: with retry, sum(packetBytes)"
scalar NetworkModified.host[1].wlan[0].mac.dcf packetSentToPeerWithoutRetry:count 256
attr interpolationmode none
attr source ieee80211NotRetry(packetSentToPeer)
attr title "packets sent: without retry, count"
scalar NetworkModified.host[1].wlan[0].mac.dcf packetSentToPeerWithoutRetry:sum(packetBytes) 41472
attr interpolationmode none
attr source ieee80211NotRetry(packetSentToPeer)
attr title "packets sent: without retry, sum(packetBytes)"
scalar NetworkModified.host[1].wlan[0].mac.dcf packetDrop:count 1366
attr interpolationmode none
attr source packetDropped
attr title "packet drops, count"
scalar NetworkModified.host[1].wlan[0].mac.dcf packetDrop:sum(packetBytes) 134120
attr interpolationmode none
attr source packetDropped
attr title "packet drops, sum(packetBytes)"
scalar NetworkModified.host[1].wlan[0].mac.dcf packetDropNotAddressedToUs:count 1126
attr interpolationmode none
attr source packetDropReasonIsNotAddressedToUs(packetDropped)
attr title "packet drops: not addressed to us, count"
scalar NetworkModified.host[1].wlan[0].mac.dcf packetDropNotAddressedToUs:sum(packetBytes) 95240
attr interpolationmode none
attr source packetDropReasonIsNotAddressedToUs(packetDropped)
attr title "packet drops: not addressed to us, sum(packetBytes)"
scalar NetworkModified.host[1].wlan[0].mac.dcf packetDropQueueOverflow:count 144
attr interpolationmode none
attr source packetDropReasonIsQueueOverflow(packetDropped)
attr title "packet drops: queue overflow, count"
scalar NetworkModified.host[1].wlan[0].mac.dcf packetDropQueueOverflow:sum(packetBytes) 23328
attr interpolationmode none
attr source packetDropReasonIsQueueOverflow(packetDropped)
attr title "packet drops: queue overflow, sum(packetBytes)"
scalar NetworkModified.host[1].wlan[0].mac.dcf packetDropRetryLimitReached:count 96
attr interpolationmode none
attr source packetDropReasonIsRetryLimitReached(packetDropped)
attr title "packet drops: retry limit reached, count"
scalar NetworkModified.host[1].wlan[0].mac.dcf packetDropRetryLimitReached:sum(packetBytes) 15552
attr interpolationmode none
attr source packetDropReasonIsRetryLimitReached(packetDropped)
attr title "packet drops: retry limit reached, sum(packetBytes)"
scalar NetworkModified.host[1].wlan[0].mac.dcf linkBroken:count 96
attr interpolationmode none
attr title "link breaks, count"
scalar NetworkModified.host[1].wlan[0].mac packetReceivedFromLower:count 1289
attr interpolationmode none
attr title "packets received from lower layer, count"
scalar NetworkModified.host[1].wlan[0].mac packetReceivedFromLower:sum(packetBytes) 97818
attr interpolationmode none
attr title "packets received from lower layer, sum(packetBytes)"
scalar NetworkModified.host[1].wlan[0].mac packetSentToLower:count 924
attr interpolationmode none
attr title "packets sent to lower layer, count"
scalar NetworkModified.host[1].wlan[0].mac packetSentToLower:sum(packetBytes) 149688
attr interpolationmode none
attr title "packets sent to lower layer, sum(packetBytes)"
scalar NetworkModified.host[1].wlan[0].mac packetReceivedFromUpper:count 500
attr interpolationmode none
attr title "packets received from upper layer, count"
scalar NetworkModified.host[1].wlan[0].mac packetReceivedFromUpper:sum(packetBytes) 67000
attr interpolationmode none
attr title "packets received from upper layer, sum(packetBytes)"
scalar NetworkModified.host[1].wlan[0].mac packetSentToUpper:count 0
attr interpolationmode none
attr title "packets sent to upper layer, count"
scalar NetworkModified.host[1].wlan[0].mac packetSentToUpper:sum(packetBytes) 0
attr interpolationmode none
attr title "packets sent to upper layer, sum(packetBytes)"
scalar NetworkModified.host[1].wlan[0].mac packetDrop:count 1367
attr interpolationmode none
attr source packetDropped
attr title "packet drops, count"
scalar NetworkModified.host[1].wlan[0].mac packetDrop:sum(packetBytes) 134282
attr interpolationmode none
attr source packetDropped
attr title "packet drops, sum(packetBytes)"
scalar NetworkModified.host[1].wlan[0].mac packetDropIncorrectlyReceived:count 1
attr interpolationmode none
attr source packetDropReasonIsIncorrectlyReceived(packetDropped)
attr title "packet drops: incorrectly received, count"
scalar NetworkModified.host[1].wlan[0].mac packetDropIncorrectlyReceived:sum(packetBytes) 162
attr interpolationmode none
attr source packetDropReasonIsIncorrectlyReceived(packetDropped)
attr title "packet drops: incorrectly received, sum(packetBytes)"
scalar NetworkModified.host[1].wlan[0].mac packetDropNotAddressedToUs:count 1126
attr interpolationmode none
attr source packetDropReasonIsNotAddressedToUs(packetDropped)
attr title "packet drops: not addressed to us, count"
scalar NetworkModified.host[1].wlan[0].mac packetDropNotAddressedToUs:sum(packetBytes) 95240
attr interpolationmode none
attr source packetDropReasonIsNotAddressedToUs(packetDropped)
attr title "packet drops: not addressed to us, sum(packetBytes)"
scalar NetworkModified.host[1].wlan[0].mac packetDropQueueOverflow:count 144
attr interpolationmode none
attr source packetDropReasonIsQueueOverflow(packetDropped)
attr title "packet drops: queue overflow, count"
scalar NetworkModified.host[1].wlan[0].mac packetDropQueueOverflow:sum(packetBytes) 23328
attr interpolationmode none
attr source packetDropReasonIsQueueOverflow(packetDropped)
attr title "packet drops: queue overflow, sum(packetBytes)"
scalar NetworkModified.host[1].wlan[0].mac packetDropRetryLimitReached:count 96
attr interpolationmode none
attr source packetDropReasonIsRetryLimitReached(packetDropped)
attr title "packet drops: retry limit reached, count"
scalar NetworkModified.host[1].wlan[0].mac packetDropRetryLimitReached:sum(packetBytes) 15552
attr interpolationmode none
attr source packetDropReasonIsRetryLimitReached(packetDropped)
attr title "packet drops: retry limit reached, sum(packetBytes)"
scalar NetworkModified.host[1].wlan[0].mac packetDropDuplicateDetected:count 0
attr interpolationmode none
attr source packetDropReasonIsDuplicateDetected(packetDropped)
attr title "packet drops: duplicate detected, count"
scalar NetworkModified.host[1].wlan[0].mac packetDropDuplicateDetected:sum(packetBytes) 0
attr interpolationmode none
attr source packetDropReasonIsDuplicateDetected(packetDropped)
attr title "packet drops: duplicate detected, sum(packetBytes)"
scalar NetworkModified.host[1].wlan[0].mac packetDropOther:count 0
attr interpolationmode none
attr source packetDropReasonIsOther(packetDropped)
attr title "packet drops: other, count"
scalar NetworkModified.host[1].wlan[0].mac packetDropOther:sum(packetBytes) 0
attr interpolationmode none
attr source packetDropReasonIsOther(packetDropped)
attr title "packet drops: other, sum(packetBytes)"
scalar NetworkModified.host[1].wlan[0].mac linkBroken:count 96
attr interpolationmode none
attr title "link breaks, count"
statistic NetworkModified.host[1].wlan[0].radio radioChannel:histogram
field count 1
field mean 0
field stddev -nan
field min 0
field max 0
field sum 0
field sqrsum 0
attr interpolationmode sample-hold
attr source radioChannelChanged
attr title "Radio channel, histogram"
bin	-inf	0
bin	-0.5	0
bin	-0.48	0
bin	-0.46	0
bin	-0.44	0
bin	-0.42	0
bin	-0.4	0
bin	-0.38	0
bin	-0.36	0
bin	-0.34	0
bin	-0.32	0
bin	-0.3	0
bin	-0.28	0
bin	-0.26	0
bin	-0.24	0
bin	-0.22	0
bin	-0.2	0
bin	-0.18	0
bin	-0.16	0
bin	-0.14	0
bin	-0.12	0
bin	-0.1	0
bin	-0.08	0
bin	-0.06	0
bin	-0.04	0
bin	-0.02	0
bin	0	1
bin	0.02	0
bin	0.04	0
bin	0.06	0
bin	0.08	0
bin	0.1	0
bin	0.12	0
bin	0.14	0
bin	0.16	0
bin	0.18	0
bin	0.2	0
bin	0.22	0
bin	0.24	0
bin	0.26	0
bin	0.28	0
bin	0.3	0
bin	0.32	0
bin	0.34	0
bin	0.36	0
bin	0.38	0
bin	0.4	0
bin	0.42	0
bin	0.44	0
bin	0.46	0
bin	0.48	0
bin	0.5	0
scalar NetworkModified.host[1].wlan[0].radio radioMode:count 1851
attr interpolationmode sample-hold
attr source radioModeChanged
attr title "Radio mode, count"
scalar NetworkModified.host[1].wlan[0].radio receptionState:count 4431
attr interpolationmode sample-hold
attr source receptionStateChanged
attr title "Radio reception state, count"
scalar NetworkModified.host[1].wlan[0].radio transmissionState:count 3696
attr interpolationmode sample-hold
attr source transmissionStateChanged
attr title "Radio transmission state, count"
statistic NetworkModified.host[1].wlan[0].radio minSnir:histogram
field count 1289
field mean 45315229.550545
field stddev 593710760.32121
field min 0.19886713761741
field max 16712772718.032
field sum 58411330890.652
field sqrsum 4.5665722026216e+20
attr source minimumSnir(packetSentToUpper)
attr title "Min SNIR, histogram"
bin	-inf	0
bin	0	1275
bin	326700000	2
bin	653400000	0
bin	980100000	1
bin	1306800000	0
bin	1633500000	1
bin	1960200000	1
bin	2286900000	1
bin	2613600000	1
bin	2940300000	0
bin	3267000000	2
bin	3593700000	0
bin	3920400000	1
bin	4247100000	0
bin	4573800000	0
bin	4900500000	0
bin	5227200000	0
bin	5553900000	0
bin	5880600000	2
bin	6207300000	1
bin	6534000000	0
bin	6860700000	0
bin	7187400000	0
bin	7514100000	0
bin	7840800000	0
bin	8167500000	0
bin	8494200000	0
bin	8820900000	0
bin	9147600000	0
bin	9474300000	0
bin	9801000000	0
bin	10127700000	0
bin	10454400000	0
bin	10781100000	0
bin	11107800000	0
bin	11434500000	0
bin	11761200000	0
bin	12087900000	0
bin	12414600000	0
bin	12741300000	0
bin	13068000000	0
bin	13394700000	0
bin	13721400000	0
bin	14048100000	0
bin	14374800000	0
bin	14701500000	0
bin	15028200000	0
bin	15354900000	0
bin	15681600000	0
bin	16008300000	0
bin	16335000000	0
bin	16661700000	1
bin	16988400000	0
statistic NetworkModified.host[1].wlan[0].radio packetErrorRate:histogram
field count 1289
field mean 0.00080292393585692
field stddev 0.027868548589573
field min 0
field max 1
field sum 1.0349689533196
field sqrsum 1.0011639299758
attr source packetErrorRate(packetSentToUpper)
attr title "Packet error rate, histogram"
bin	-inf	0
bin	-0.5	0
bin	-0.48	0
bin	-0.46	0
bin	-0.44	0
bin	-0.42	0
bin	-0.4	0
bin	-0.38	0
bin	-0.36	0
bin	-0.34	0
bin	-0.32	0
bin	-0.3	0
bin	-0.28	0
bin	-0.26	0
bin	-0.24	0
bin	-0.22	0
bin	-0.2	0
bin	-0.18	0
bin	-0.16	0
bin	-0.14	0
bin	-0.12	0
bin	-0.1	0
bin	-0.08	0
bin	-0.06	0
bin	-0.04	0
bin	-0.02	0
bin	0	1287
bin	0.02	1
bin	0.04	0
bin	0.06	0
bin	0.08	0
bin	0.1	0
bin	0.12	0
bin	0.14	0
bin	0.16	0
bin	0.18	0
bin	0.2	0
bin	0.22	0
bin	0.24	0
bin	0.26	0
bin	0.28	0
bin	0.3	0
bin	0.32	0
bin	0.34	0
bin	0.36	0
bin	0.38	0
bin	0.4	0
bin	0.42	0
bin	0.44	0
bin	0.46	0
bin	0.48	0
bin	0.5	0
bin	0.52	0
bin	0.54	0
bin	0.56	0
bin	0.58	0
bin	0.6	0
bin	0.62	0
bin	0.64	0
bin	0.66	0
bin	0.68	0
bin	0.7	0
bin	0.72	0
bin	0.74	0
bin	0.76	0
bin	0.78	0
bin	0.8	0
bin	0.82	0
bin	0.84	0
bin	0.86	0
bin	0.88	0
bin	0.9	0
bin	0.92	0
bin	0.94	0
bin	0.96	0
bin	0.98	0
bin	1	1
bin	1.02	0
statistic NetworkModified.host[1].wlan[0].radio bitErrorRate:histogram
field count 0
field mean -nan
field stddev -nan
field min -nan
field max -nan
field sum 0
field sqrsum 0
attr source bitErrorRate(packetSentToUpper)
attr title "Bit error rate, histogram"
bin	-inf	0
bin	0	0
bin	1	0
statistic NetworkModified.host[1].wlan[0].radio symbolErrorRate:histogram
field count 0
field mean -nan
field stddev -nan
field min -nan
field max -nan
field sum 0
field sqrsum 0
attr source symbolErrorRate(packetSentToUpper)
attr title "Symbol error rate, histogram"
bin	-inf	0
bin	0	0
bin	1	0
scalar NetworkModified.host[1].udp packetReceived:count 0
attr interpolationmode none
attr source packetReceived
attr title "packets received, count"
scalar NetworkModified.host[1].udp packetReceived:sum(packetBytes) 0
attr interpolationmode none
attr source packetReceived
attr title "packets received, sum(packetBytes)"
scalar NetworkModified.host[1].udp packetSent:count 500
attr interpolationmode none
attr source packetSent
attr title "packets sent, count"
scalar NetworkModified.host[1].udp packetSent:sum(packetBytes) 54000
attr interpolationmode none
attr source packetSent
attr title "packets sent, sum(packetBytes)"
scalar NetworkModified.host[1].udp passedUpPk:count 0
attr interpolationmode none
attr source packetSentToUpper
attr title "packets passed up, count"
scalar NetworkModified.host[1].udp droppedPkWrongPort:count 0
attr interpolationmode none
attr source packetDropReasonIsNoPortFound(packetDropped)
attr title "packets dropped (wrong port), count"
scalar NetworkModified.host[1].udp droppedPkBadChecksum:count 0
attr interpolationmode none
attr source packetDropReasonIsIncorrectlyReceived(packetDropped)
attr title "packets dropped (checksum error), count"
scalar NetworkModified.host[1].app[0] "packets sent" 500
scalar NetworkModified.host[1].app[0] "packets received" 0
scalar NetworkModified.host[1].app[0] packetReceived:count 0
attr interpolationmode none
attr source packetReceived
attr title "packets received, count"
scalar NetworkModified.host[1].app[0] packetReceived:sum(packetBytes) 0
attr interpolationmode none
attr source packetReceived
attr title "packets received, sum(packetBytes)"
statistic NetworkModified.host[1].app[0] rcvdPkLifetime:stats
field count 0
field mean -nan
field stddev -nan
field min -nan
field max -nan
field sum 0
field sqrsum 0
attr interpolationmode none
attr source dataAge(packetReceived)
attr title "received packet lifetime, stats"
attr unit s
scalar NetworkModified.host[1].app[0] packetSent:count 500
attr interpolationmode none
attr source packetSent
attr title "packets sent, count"
scalar NetworkModified.host[1].app[0] packetSent:sum(packetBytes) 50000
attr interpolationmode none
attr source packetSent
attr title "packets sent, sum(packetBytes)"
scalar NetworkModified.host[2].lo[0].lo rcvdPkFromHl:count 0
attr interpolationmode none
attr source packetReceivedFromUpper
attr title "packets received from higher layer, count"
scalar NetworkModified.host[2].lo[0].lo rcvdPkFromHl:sum(packetBytes) 0
attr interpolationmode none
attr source packetReceivedFromUpper
attr title "packets received from higher layer, sum(packetBytes)"
scalar NetworkModified.host[2].lo[0].lo passedUpPk:count 0
attr interpolationmode none
attr source packetSentToUpper
attr title "packets passed to higher layer, count"
scalar NetworkModified.host[2].lo[0].lo passedUpPk:sum(packetBytes) 0
attr interpolationmode none
attr source packetSentToUpper
attr title "packets passed to higher layer, sum(packetBytes)"
scalar NetworkModified.host[2].wlan[0].mac.dcf.channelAccess.pendingQueue packetPopped:count 210
attr interpolationmode none
attr title "packet popped, count"
scalar NetworkModified.host[2].wlan[0].mac.dcf.channelAccess.pendingQueue packetPopped:sum(packetBytes) 34020
attr interpolationmode none
attr title "packet popped, sum(packetBytes)"
statistic NetworkModified.host[2].wlan[0].mac.dcf.channelAccess.pendingQueue queueingTime:histogram
field count 210
field mean 1.5635721284195
field stddev 1.8969137301351
field min 0
field max 5.787045885853
field sum 328.3501469681
field sqrsum 1265.440013373
attr interpolationmode none
attr source queueingTime(packetPopped)
attr title "queueing times, histogram"
attr unit s
bin	-inf	0
bin	0	99
bin	0.08192	1
bin	0.16384	1
bin	0.24576	1
bin	0.32768	2
bin	0.4096	1
bin	0.49152	2
bin	0.57344	2
bin	0.65536	2
bin	0.73728	2
bin	0.8192	1
bin	0.90112	2
bin	0.98304	2
bin	1.06496	1
bin	1.14688	2
bin	1.2288	1
bin	1.31072	2
bin	1.39264	1
bin	1.47456	1
bin	1.55648	2
bin	1.6384	1
bin	1.72032	2
bin	1.80224	2
bin	1.88416	2
bin	1.96608	2
bin	2.048	1
bin	2.12992	2
bin	2.21184	2
bin	2.29376	2
bin	2.37568	1
bin	2.4576	2
bin	2.53952	2
bin	2.62144	1
bin	2.70336	2
bin	2.78528	1
bin	2.8672	1
bin	2.94912	2
bin	3.03104	2
bin	3.11296	1
bin	3.19488	2
bin	3.2768	2
bin	3.35872	2
bin	3.44064	1
bin	3.52256	2
bin	3.60448	1
bin	3.6864	1
bin	3.76832	2
bin	3.85024	1
bin	3.93216	2
bin	4.01408	1
bin	4.096	2
bin	4.17792	2
bin	4.25984	2
bin	4.34176	2
bin	4.42368	1
bin	4.5056	2
bin	4.58752	1
bin	4.66944	2
bin	4.75136	1
bin	4.83328	2
bin	4.9152	2
bin	4.99712	1
bin	5.07904	2
bin	5.16096	1
bin	5.24288	2
bin	5.3248	1
bin	5.40672	2
bin	5.48864	1
bin	5.57056	2
bin	5.65248	2
bin	5.7344	1
bin	5.81632	0
scalar NetworkModified.host[2].wlan[0].mac.dcf.channelAccess.pendingQueue queueLength:max 101
attr interpolationmode sample-hold
attr source "count(packetPushed) - count(packetPopped) - count(packetRemoved) - count(packetDropped)"
attr title "queue length, max"
scalar NetworkModified.host[2].wlan[0].mac.dcf.channelAccess.pendingQueue queueLength:timeavg 66.815388685134
attr interpolationmode sample-hold
attr source "count(packetPushed) - count(packetPopped) - count(packetRemoved) - count(packetDropped)"
attr title "queue length, timeavg"
scalar NetworkModified.host[2].wlan[0].mac.dcf.channelAccess.pendingQueue packetPushed:count 500
attr interpolationmode none
attr title "packet pushed, count"
scalar NetworkModified.host[2].wlan[0].mac.dcf.channelAccess.pendingQueue packetPushed:sum(packetBytes) 81000
attr interpolationmode none
attr title "packet pushed, sum(packetBytes)"
scalar NetworkModified.host[2].wlan[0].mac.dcf.channelAccess.pendingQueue packetDropQueueOverflow:count 190
attr interpolationmode none
attr source packetDropReasonIsQueueOverflow(packetDropped)
attr title "packet drops: queue overflow, count"
scalar NetworkModified.host[2].wlan[0].mac.dcf.channelAccess.pendingQueue packetDropQueueOverflow:sum(packetBytes) 30780
attr interpolationmode none
attr source packetDropReasonIsQueueOverflow(packetDropped)
attr title "packet drops: queue overflow, sum(packetBytes)"
scalar NetworkModified.host[2].wlan[0].mac.dcf.channelAccess.pendingQueue packetRemoved:count 0
attr interpolationmode none
attr title "packets removed, count"
scalar NetworkModified.host[2].wlan[0].mac.dcf.channelAccess.pendingQueue packetRemoved:sum(packetBytes) 0
attr interpolationmode none
attr title "packets removed, sum(packetBytes)"
statistic NetworkModified.host[2].wlan[0].mac.dcf.channelAccess.inProgressFrames queueingTime:histogram
field count 208
field mean 0.074127949791942
field stddev 0.06601500714411
field min 0.000126067086
field max 0.195685
field sum 15.418613556724
field sqrsum 2.0450523134192
attr interpolationmode none
attr source queueingTime(packetDequeued)
attr title "queueing times, histogram"
bin	-inf	0
bin	0	80
bin	0.005	2
bin	0.01	1
bin	0.015	0
bin	0.02	2
bin	0.025	2
bin	0.03	2
bin	0.035	3
bin	0.04	0
bin	0.045	1
bin	0.05	2
bin	0.055	0
bin	0.06	1
bin	0.065	0
bin	0.07	1
bin	0.075	0
bin	0.08	1
bin	0.085	0
bin	0.09	1
bin	0.095	2
bin	0.1	1
bin	0.105	8
bin	0.11	11
bin	0.115	10
bin	0.12	5
bin	0.125	9
bin	0.13	13
bin	0.135	12
bin	0.14	10
bin	0.145	10
bin	0.15	4
bin	0.155	3
bin	0.16	4
bin	0.165	0
bin	0.17	2
bin	0.175	2
bin	0.18	0
bin	0.185	2
bin	0.19	0
bin	0.195	1
bin	0.2	0
bin	0.205	0
bin	0.21	0
bin	0.215	0
bin	0.22	0
bin	0.225	0
bin	0.23	0
bin	0.235	0
scalar NetworkModified.host[2].wlan[0].mac.dcf.channelAccess.inProgressFrames queueLength:max 2
attr interpolationmode sample-hold
attr source "count(packetEnqueued) - count(packetDequeued)"
attr title "queue length, max"
scalar NetworkModified.host[2].wlan[0].mac.dcf.channelAccess.inProgressFrames queueLength:timeavg 1.5555958469196
attr interpolationmode sample-hold
attr source "count(packetEnqueued) - count(packetDequeued)"
attr title "queue length, timeavg"
scalar NetworkModified.host[2].wlan[0].mac.dcf.channelAccess.contention channelAccessGranted:count 978
attr title "channel access granted, count"
scalar NetworkModified.host[2].wlan[0].mac.dcf.channelAccess.contention stateChanged:count 9498
attr interpolationmode none
attr title "contention state changed, count"
scalar NetworkModified.host[2].wlan[0].mac.dcf.channelAccess channelOwnershipChanged:count 1956
attr interpolationmode sample-hold
attr title "channel ownership, count"
scalar NetworkModified.host[2].wlan[0].mac.dcf.originatorMacDataService packetAggregated:count 0
attr title "packets aggregated, count"
scalar NetworkModified.host[2].wlan[0].mac.dcf.originatorMacDataService packetFragmented:count 0
attr title "packets fragmented, count"
scalar NetworkModified.host[2].wlan[0].mac.dcf.recipientMacDataService packetDeaggregated:count 0
attr title "packets deaggregated, count"
scalar NetworkModified.host[2].wlan[0].mac.dcf.recipientMacDataService packetDefragmented:count 0
attr title "packets defragmented, count"
scalar NetworkModified.host[2].wlan[0].mac.dcf.recipientMacDataService packetDropDuplicateDetected:count 0
attr interpolationmode none
attr source packetDropReasonIsDuplicateDetected(packetDropped)
attr title "packet drops: duplicate detected, count"
scalar NetworkModified.host[2].wlan[0].mac.dcf.recipientMacDataService packetDropDuplicateDetected:sum(packetBytes) 0
attr interpolationmode none
attr source packetDropReasonIsDuplicateDetected(packetDropped)
attr title "packet drops: duplicate detected, sum(packetBytes)"
scalar NetworkModified.host[2].wlan[0].mac.dcf.recoveryProcedure retryLimitReached:count 119
attr title "retry limit reached, count"
scalar NetworkModified.host[2].wlan[0].mac.dcf frameSequenceFinished:count 978
attr title "finished frame sequences, count"
statistic NetworkModified.host[2].wlan[0].mac.dcf frameSequenceDuration:histogram
field count 978
field mean 0.0001360103148548
field stddev 3.1295232871467e-06
field min 0.000126067086
field max 0.000137
field sum 0.133018087928
field sqrsum 1.8101400676408e-05
attr source frameSequenceDuration(frameSequenceFinished)
attr title "frame sequence durations, histogram"
bin	-inf	0
bin	0.0001232	0
bin	0.0001234	0
bin	0.0001236	0
bin	0.0001238	0
bin	0.000124	0
bin	0.0001242	0
bin	0.0001244	0
bin	0.0001246	0
bin	0.0001248	0
bin	0.000125	0
bin	0.0001252	0
bin	0.0001254	0
bin	0.0001256	0
bin	0.0001258	0
bin	0.000126	85
bin	0.0001262	4
bin	0.0001264	0
bin	0.0001266	0
bin	0.0001268	0
bin	0.000127	0
bin	0.0001272	0
bin	0.0001274	0
bin	0.0001276	0
bin	0.0001278	0
bin	0.000128	0
bin	0.0001282	0
bin	0.0001284	0
bin	0.0001286	0
bin	0.0001288	0
bin	0.000129	0
bin	0.0001292	0
bin	0.0001294	0
bin	0.0001296	0
bin	0.0001298	0
bin	0.00013	0
bin	0.0001302	0
bin	0.0001304	0
bin	0.0001306	0
bin	0.0001308	0
bin	0.000131	0
bin	0.0001312	0
bin	0.0001314	0
bin	0.0001316	0
bin	0.0001318	0
bin	0.000132	0
bin	0.0001322	0
bin	0.0001324	0
bin	0.0001326	0
bin	0.0001328	0
bin	0.000133	0
bin	0.0001332	0
bin	0.0001334	0
bin	0.0001336	0
bin	0.0001338	0
bin	0.000134	0
bin	0.0001342	0
bin	0.0001344	0
bin	0.0001346	0
bin	0.0001348	0
bin	0.000135	0
bin	0.0001352	0
bin	0.0001354	0
bin	0.0001356	0
bin	0.0001358	0
bin	0.000136	0
bin	0.0001362	0
bin	0.0001364	0
bin	0.0001366	0
bin	0.0001368	889
bin	0.000137	0
bin	0.0001372	0
bin	0.0001374	0
bin	0.0001376	0
bin	0.0001378	0
bin	0.000138	0
bin	0.0001382	0
bin	0.0001384	0
bin	0.0001386	0
bin	0.0001388	0
bin	0.000139	0
bin	0.0001392	0
bin	0.0001394	0
bin	0.0001396	0
bin	0.0001398	0
statistic NetworkModified.host[2].wlan[0].mac.dcf frameSequenceNumPackets:histogram
field count 978
field mean 2
field stddev 0
field min 2
field max 2
field sum 1956
field sqrsum 3912
attr source frameSequenceNumPackets(frameSequenceFinished)
attr title "frame sequences: number of packets, histogram"
bin	-inf	0
bin	1	0
bin	2	978
bin	3	0
scalar NetworkModified.host[2].wlan[0].mac.dcf packetReceivedFromPeer:count 89
attr interpolationmode none
attr title "packets received, count"
scalar NetworkModified.host[2].wlan[0].mac.dcf packetReceivedFromPeer:sum(packetBytes) 1246
attr interpolationmode none
attr title "packets received, sum(packetBytes)"
scalar NetworkModified.host[2].wlan[0].mac.dcf packetReceivedFromPeerUnicast:count 89
attr interpolationmode none
attr source ieee80211Unicast(packetReceivedFromPeer)
attr title "packets received: unicast, count"
scalar NetworkModified.host[2].wlan[0].mac.dcf packetReceivedFromPeerUnicast:sum(packetBytes) 1246
attr interpolationmode none
attr source ieee80211Unicast(packetReceivedFromPeer)
attr title "packets received: unicast, sum(packetBytes)"
scalar NetworkModified.host[2].wlan[0].mac.dcf packetReceivedFromPeerMulticast:count 0
attr interpolationmode none
attr source ieee80211Multicast(packetReceivedFromPeer)
attr title "packets received: multicast, count"
scalar NetworkModified.host[2].wlan[0].mac.dcf packetReceivedFromPeerMulticast:sum(packetBytes) 0
attr interpolationmode none
attr source ieee80211Multicast(packetReceivedFromPeer)
attr title "packets received: multicast, sum(packetBytes)"
scalar NetworkModified.host[2].wlan[0].mac.dcf packetReceivedFromPeerBroadcast:count 0
attr interpolationmode none
attr source ieee80211Broadcast(packetReceivedFromPeer)
attr title "packets received: broadcast, count"
scalar NetworkModified.host[2].wlan[0].mac.dcf packetReceivedFromPeerBroadcast:sum(packetBytes) 0
attr interpolationmode none
attr source ieee80211Broadcast(packetReceivedFromPeer)
attr title "packets received: broadcast, sum(packetBytes)"
scalar NetworkModified.host[2].wlan[0].mac.dcf packetReceivedFromPeerWithRetry:count 0
attr interpolationmode none
attr source ieee80211Retry(packetReceivedFromPeer)
attr title "packets received: with retry, count"
scalar NetworkModified.host[2].wlan[0].mac.dcf packetReceivedFromPeerWithRetry:sum(packetBytes) 0
attr interpolationmode none
attr source ieee80211Retry(packetReceivedFromPeer)
attr title "packets received: with retry, sum(packetBytes)"
scalar NetworkModified.host[2].wlan[0].mac.dcf packetReceivedFromPeerWithoutRetry:count 89
attr interpolationmode none
attr source ieee80211NotRetry(packetReceivedFromPeer)
attr title "packets received: without retry, count"
scalar NetworkModified.host[2].wlan[0].mac.dcf packetReceivedFromPeerWithoutRetry:sum(packetBytes) 1246
attr interpolationmode none
attr source ieee80211NotRetry(packetReceivedFromPeer)
attr title "packets received: without retry, sum(packetBytes)"
scalar NetworkModified.host[2].wlan[0].mac.dcf packetSentToPeer:count 978
attr interpolationmode none
attr title "packets sent, count"
scalar NetworkModified.host[2].wlan[0].mac.dcf packetSentToPeer:sum(packetBytes) 158436
attr interpolationmode none
attr title "packets sent, sum(packetBytes)"
scalar NetworkModified.host[2].wlan[0].mac.dcf packetSentToPeerUnicast:count 978
attr interpolationmode none
attr source ieee80211Unicast(packetSentToPeer)
attr title "packets sent: unicast, count"
scalar NetworkModified.host[2].wlan[0].mac.dcf packetSentToPeerUnicast:sum(packetBytes) 158436
attr interpolationmode none
attr source ieee80211Unicast(packetSentToPeer)
attr title "packets sent: unicast, sum(packetBytes)"
scalar NetworkModified.host[2].wlan[0].mac.dcf packetSentToPeerMulticast:count 0
attr interpolationmode none
attr source ieee80211Multicast(packetSentToPeer)
attr title "packets sent: multicast, count"
scalar NetworkModified.host[2].wlan[0].mac.dcf packetSentToPeerMulticast:sum(packetBytes) 0
attr interpolationmode none
attr source ieee80211Multicast(packetSentToPeer)
attr title "packets sent: multicast, sum(packetBytes)"
scalar NetworkModified.host[2].wlan[0].mac.dcf packetSentToPeerBroadcast:count 0
attr interpolationmode none
attr source ieee80211Broadcast(packetSentToPeer)
attr title "packets sent: broadcast , count"
scalar NetworkModified.host[2].wlan[0].mac.dcf packetSentToPeerBroadcast:sum(packetBytes) 0
attr interpolationmode none
attr source ieee80211Broadcast(packetSentToPeer)
attr title "packets sent: broadcast , sum(packetBytes)"
scalar NetworkModified.host[2].wlan[0].mac.dcf packetSentToPeerWithRetry:count 769
attr interpolationmode none
attr source ieee80211Retry(packetSentToPeer)
attr title "packets sent: with retry, count"
scalar NetworkModified.host[2].wlan[0].mac.dcf packetSentToPeerWithRetry:sum(packetBytes) 124578
attr interpolationmode none
attr source ieee80211Retry(packetSentToPeer)
attr title "packets sent: with retry, sum(packetBytes)"
scalar NetworkModified.host[2].wlan[0].mac.dcf packetSentToPeerWithoutRetry:count 209
attr interpolationmode none
attr source ieee80211NotRetry(packetSentToPeer)
attr title "packets sent: without retry, count"
scalar NetworkModified.host[2].wlan[0].mac.dcf packetSentToPeerWithoutRetry:sum(packetBytes) 33858
attr interpolationmode none
attr source ieee80211NotRetry(packetSentToPeer)
attr title "packets sent: without retry, sum(packetBytes)"
scalar NetworkModified.host[2].wlan[0].mac.dcf packetDrop:count 612
attr interpolationmode none
attr source packetDropped
attr title "packet drops, count"
scalar NetworkModified.host[2].wlan[0].mac.dcf packetDrop:sum(packetBytes) 81384
attr interpolationmode none
attr source packetDropped
attr title "packet drops, sum(packetBytes)"
scalar NetworkModified.host[2].wlan[0].mac.dcf packetDropNotAddressedToUs:count 303
attr interpolationmode none
attr source packetDropReasonIsNotAddressedToUs(packetDropped)
attr title "packet drops: not addressed to us, count"
scalar NetworkModified.host[2].wlan[0].mac.dcf packetDropNotAddressedToUs:sum(packetBytes) 31326
attr interpolationmode none
attr source packetDropReasonIsNotAddressedToUs(packetDropped)
attr title "packet drops: not addressed to us, sum(packetBytes)"
scalar NetworkModified.host[2].wlan[0].mac.dcf packetDropQueueOverflow:count 190
attr interpolationmode none
attr source packetDropReasonIsQueueOverflow(packetDropped)
attr title "packet drops: queue overflow, count"
scalar NetworkModified.host[2].wlan[0].mac.dcf packetDropQueueOverflow:sum(packetBytes) 30780
attr interpolationmode none
attr source packetDropReasonIsQueueOverflow(packetDropped)
attr title "packet drops: queue overflow, sum(packetBytes)"
scalar NetworkModified.host[2].wlan[0].mac.dcf packetDropRetryLimitReached:count 119
attr interpolationmode none
attr source packetDropReasonIsRetryLimitReached(packetDropped)
attr title "packet drops: retry limit reached, count"
scalar NetworkModified.host[2].wlan[0].mac.dcf packetDropRetryLimitReached:sum(packetBytes) 19278
attr interpolationmode none
attr source packetDropReasonIsRetryLimitReached(packetDropped)
attr title "packet drops: retry limit reached, sum(packetBytes)"
scalar NetworkModified.host[2].wlan[0].mac.dcf linkBroken:count 119
attr interpolationmode none
attr title "link breaks, count"
scalar NetworkModified.host[2].wlan[0].mac packetReceivedFromLower:count 401
attr interpolationmode none
attr title "packets received from lower layer, count"
scalar NetworkModified.host[2].wlan[0].mac packetReceivedFromLower:sum(packetBytes) 33438
attr interpolationmode none
attr title "packets received from lower layer, sum(packetBytes)"
scalar NetworkModified.host[2].wlan[0].mac packetSentToLower:count 978
attr interpolationmode none
attr title "packets sent to lower layer, count"
scalar NetworkModified.host[2].wlan[0].mac packetSentToLower:sum(packetBytes) 158436
attr interpolationmode none
attr title "packets sent to lower layer, sum(packetBytes)"
scalar NetworkModified.host[2].wlan[0].mac packetReceivedFromUpper:count 500
attr interpolationmode none
attr title "packets received from upper layer, count"
scalar NetworkModified.host[2].wlan[0].mac packetReceivedFromUpper:sum(packetBytes) 67000
attr interpolationmode none
attr title "packets received from upper layer, sum(packetBytes)"
scalar NetworkModified.host[2].wlan[0].mac packetSentToUpper:count 0
attr interpolationmode none
attr title "packets sent to upper layer, count"
scalar NetworkModified.host[2].wlan[0].mac packetSentToUpper:sum(packetBytes) 0
attr interpolationmode none
attr title "packets sent to upper layer, sum(packetBytes)"
scalar NetworkModified.host[2].wlan[0].mac packetDrop:count 621
attr interpolationmode none
attr source packetDropped
attr title "packet drops, count"
scalar NetworkModified.host[2].wlan[0].mac packetDrop:sum(packetBytes) 82250
attr interpolationmode none
attr source packetDropped
attr title "packet drops, sum(packetBytes)"
scalar NetworkModified.host[2].wlan[0].mac packetDropIncorrectlyReceived:count 9
attr interpolationmode none
attr source packetDropReasonIsIncorrectlyReceived(packetDropped)
attr title "packet drops: incorrectly received, count"
scalar NetworkModified.host[2].wlan[0].mac packetDropIncorrectlyReceived:sum(packetBytes) 866
attr interpolationmode none
attr source packetDropReasonIsIncorrectlyReceived(packetDropped)
attr title "packet drops: incorrectly received, sum(packetBytes)"
scalar NetworkModified.host[2].wlan[0].mac packetDropNotAddressedToUs:count 303
attr interpolationmode none
[...]
attr title "packets aggregated, count"
scalar NetworkModified.host[19].wlan[0].mac.dcf.originatorMacDataService packetFragmented:count 0
attr title "packets fragmented, count"
scalar NetworkModified.host[19].wlan[0].mac.dcf.recipientMacDataService packetDeaggregated:count 0
attr title "packets deaggregated, count"
scalar NetworkModified.host[19].wlan[0].mac.dcf.recipientMacDataService packetDefragmented:count 70
attr title "packets defragmented, count"
scalar NetworkModified.host[19].wlan[0].mac.dcf.recipientMacDataService packetDropDuplicateDetected:count 0
attr interpolationmode none
attr source packetDropReasonIsDuplicateDetected(packetDropped)
attr title "packet drops: duplicate detected, count"
scalar NetworkModified.host[19].wlan[0].mac.dcf.recipientMacDataService packetDropDuplicateDetected:sum(packetBytes) 0
attr interpolationmode none
attr source packetDropReasonIsDuplicateDetected(packetDropped)
attr title "packet drops: duplicate detected, sum(packetBytes)"
scalar NetworkModified.host[19].wlan[0].mac.dcf.recoveryProcedure retryLimitReached:count 0
attr title "retry limit reached, count"
scalar NetworkModified.host[19].wlan[0].mac.dcf frameSequenceFinished:count 0
attr title "finished frame sequences, count"
statistic NetworkModified.host[19].wlan[0].mac.dcf frameSequenceDuration:histogram
field count 0
field mean -nan
field stddev -nan
field min -nan
field max -nan
field sum 0
field sqrsum 0
attr source frameSequenceDuration(frameSequenceFinished)
attr title "frame sequence durations, histogram"
bin	-inf	0
bin	0	0
bin	1	0
statistic NetworkModified.host[19].wlan[0].mac.dcf frameSequenceNumPackets:histogram
field count 0
field mean -nan
field stddev -nan
field min -nan
field max -nan
field sum 0
field sqrsum 0
attr source frameSequenceNumPackets(frameSequenceFinished)
attr title "frame sequences: number of packets, histogram"
bin	-inf	0
bin	0	0
bin	1	0
scalar NetworkModified.host[19].wlan[0].mac.dcf packetReceivedFromPeer:count 70
attr interpolationmode none
attr title "packets received, count"
scalar NetworkModified.host[19].wlan[0].mac.dcf packetReceivedFromPeer:sum(packetBytes) 11340
attr interpolationmode none
attr title "packets received, sum(packetBytes)"
scalar NetworkModified.host[19].wlan[0].mac.dcf packetReceivedFromPeerUnicast:count 70
attr interpolationmode none
attr source ieee80211Unicast(packetReceivedFromPeer)
attr title "packets received: unicast, count"
scalar NetworkModified.host[19].wlan[0].mac.dcf packetReceivedFromPeerUnicast:sum(packetBytes) 11340
attr interpolationmode none
attr source ieee80211Unicast(packetReceivedFromPeer)
attr title "packets received: unicast, sum(packetBytes)"
scalar NetworkModified.host[19].wlan[0].mac.dcf packetReceivedFromPeerMulticast:count 0
attr interpolationmode none
attr source ieee80211Multicast(packetReceivedFromPeer)
attr title "packets received: multicast, count"
scalar NetworkModified.host[19].wlan[0].mac.dcf packetReceivedFromPeerMulticast:sum(packetBytes) 0
attr interpolationmode none
attr source ieee80211Multicast(packetReceivedFromPeer)
attr title "packets received: multicast, sum(packetBytes)"
scalar NetworkModified.host[19].wlan[0].mac.dcf packetReceivedFromPeerBroadcast:count 0
attr interpolationmode none
attr source ieee80211Broadcast(packetReceivedFromPeer)
attr title "packets received: broadcast, count"
scalar NetworkModified.host[19].wlan[0].mac.dcf packetReceivedFromPeerBroadcast:sum(packetBytes) 0
attr interpolationmode none
attr source ieee80211Broadcast(packetReceivedFromPeer)
attr title "packets received: broadcast, sum(packetBytes)"
scalar NetworkModified.host[19].wlan[0].mac.dcf packetReceivedFromPeerWithRetry:count 2
attr interpolationmode none
attr source ieee80211Retry(packetReceivedFromPeer)
attr title "packets received: with retry, count"
scalar NetworkModified.host[19].wlan[0].mac.dcf packetReceivedFromPeerWithRetry:sum(packetBytes) 324
attr interpolationmode none
attr source ieee80211Retry(packetReceivedFromPeer)
attr title "packets received: with retry, sum(packetBytes)"
scalar NetworkModified.host[19].wlan[0].mac.dcf packetReceivedFromPeerWithoutRetry:count 68
attr interpolationmode none
attr source ieee80211NotRetry(packetReceivedFromPeer)
attr title "packets received: without retry, count"
scalar NetworkModified.host[19].wlan[0].mac.dcf packetReceivedFromPeerWithoutRetry:sum(packetBytes) 11016
attr interpolationmode none
attr source ieee80211NotRetry(packetReceivedFromPeer)
attr title "packets received: without retry, sum(packetBytes)"
scalar NetworkModified.host[19].wlan[0].mac.dcf packetSentToPeer:count 70
attr interpolationmode none
attr title "packets sent, count"
scalar NetworkModified.host[19].wlan[0].mac.dcf packetSentToPeer:sum(packetBytes) 980
attr interpolationmode none
attr title "packets sent, sum(packetBytes)"
scalar NetworkModified.host[19].wlan[0].mac.dcf packetSentToPeerUnicast:count 70
attr interpolationmode none
attr source ieee80211Unicast(packetSentToPeer)
attr title "packets sent: unicast, count"
scalar NetworkModified.host[19].wlan[0].mac.dcf packetSentToPeerUnicast:sum(packetBytes) 980
attr interpolationmode none
attr source ieee80211Unicast(packetSentToPeer)
attr title "packets sent: unicast, sum(packetBytes)"
scalar NetworkModified.host[19].wlan[0].mac.dcf packetSentToPeerMulticast:count 0
attr interpolationmode none
attr source ieee80211Multicast(packetSentToPeer)
attr title "packets sent: multicast, count"
scalar NetworkModified.host[19].wlan[0].mac.dcf packetSentToPeerMulticast:sum(packetBytes) 0
attr interpolationmode none
attr source ieee80211Multicast(packetSentToPeer)
attr title "packets sent: multicast, sum(packetBytes)"
scalar NetworkModified.host[19].wlan[0].mac.dcf packetSentToPeerBroadcast:count 0
attr interpolationmode none
attr source ieee80211Broadcast(packetSentToPeer)
attr title "packets sent: broadcast , count"
scalar NetworkModified.host[19].wlan[0].mac.dcf packetSentToPeerBroadcast:sum(packetBytes) 0
attr interpolationmode none
attr source ieee80211Broadcast(packetSentToPeer)
attr title "packets sent: broadcast , sum(packetBytes)"
scalar NetworkModified.host[19].wlan[0].mac.dcf packetSentToPeerWithRetry:count 0
attr interpolationmode none
attr source ieee80211Retry(packetSentToPeer)
attr title "packets sent: with retry, count"
scalar NetworkModified.host[19].wlan[0].mac.dcf packetSentToPeerWithRetry:sum(packetBytes) 0
attr interpolationmode none
attr source ieee80211Retry(packetSentToPeer)
attr title "packets sent: with retry, sum(packetBytes)"
scalar NetworkModified.host[19].wlan[0].mac.dcf packetSentToPeerWithoutRetry:count 70
attr interpolationmode none
attr source ieee80211NotRetry(packetSentToPeer)
attr title "packets sent: without retry, count"
scalar NetworkModified.host[19].wlan[0].mac.dcf packetSentToPeerWithoutRetry:sum(packetBytes) 980
attr interpolationmode none
attr source ieee80211NotRetry(packetSentToPeer)
attr title "packets sent: without retry, sum(packetBytes)"
scalar NetworkModified.host[19].wlan[0].mac.dcf packetDrop:count 860
attr interpolationmode none
attr source packetDropped
attr title "packet drops, count"
scalar NetworkModified.host[19].wlan[0].mac.dcf packetDrop:sum(packetBytes) 65764
attr interpolationmode none
attr source packetDropped
attr title "packet drops, sum(packetBytes)"
scalar NetworkModified.host[19].wlan[0].mac.dcf packetDropNotAddressedToUs:count 860
attr interpolationmode none
attr source packetDropReasonIsNotAddressedToUs(packetDropped)
attr title "packet drops: not addressed to us, count"
scalar NetworkModified.host[19].wlan[0].mac.dcf packetDropNotAddressedToUs:sum(packetBytes) 65764
attr interpolationmode none
attr source packetDropReasonIsNotAddressedToUs(packetDropped)
attr title "packet drops: not addressed to us, sum(packetBytes)"
scalar NetworkModified.host[19].wlan[0].mac.dcf packetDropQueueOverflow:count 0
attr interpolationmode none
attr source packetDropReasonIsQueueOverflow(packetDropped)
attr title "packet drops: queue overflow, count"
scalar NetworkModified.host[19].wlan[0].mac.dcf packetDropQueueOverflow:sum(packetBytes) 0
attr interpolationmode none
attr source packetDropReasonIsQueueOverflow(packetDropped)
attr title "packet drops: queue overflow, sum(packetBytes)"
scalar NetworkModified.host[19].wlan[0].mac.dcf packetDropRetryLimitReached:count 0
attr interpolationmode none
attr source packetDropReasonIsRetryLimitReached(packetDropped)
attr title "packet drops: retry limit reached, count"
scalar NetworkModified.host[19].wlan[0].mac.dcf packetDropRetryLimitReached:sum(packetBytes) 0
attr interpolationmode none
attr source packetDropReasonIsRetryLimitReached(packetDropped)
attr title "packet drops: retry limit reached, sum(packetBytes)"
scalar NetworkModified.host[19].wlan[0].mac.dcf linkBroken:count 0
attr interpolationmode none
attr title "link breaks, count"
scalar NetworkModified.host[19].wlan[0].mac packetReceivedFromLower:count 996
attr interpolationmode none
attr title "packets received from lower layer, count"
scalar NetworkModified.host[19].wlan[0].mac packetReceivedFromLower:sum(packetBytes) 82320
attr interpolationmode none
attr title "packets received from lower layer, sum(packetBytes)"
scalar NetworkModified.host[19].wlan[0].mac packetSentToLower:count 70
attr interpolationmode none
attr title "packets sent to lower layer, count"
scalar NetworkModified.host[19].wlan[0].mac packetSentToLower:sum(packetBytes) 980
attr interpolationmode none
attr title "packets sent to lower layer, sum(packetBytes)"
scalar NetworkModified.host[19].wlan[0].mac packetReceivedFromUpper:count 0
attr interpolationmode none
attr title "packets received from upper layer, count"
scalar NetworkModified.host[19].wlan[0].mac packetReceivedFromUpper:sum(packetBytes) 0
attr interpolationmode none
attr title "packets received from upper layer, sum(packetBytes)"
scalar NetworkModified.host[19].wlan[0].mac packetSentToUpper:count 70
attr interpolationmode none
attr title "packets sent to upper layer, count"
scalar NetworkModified.host[19].wlan[0].mac packetSentToUpper:sum(packetBytes) 9380
attr interpolationmode none
attr title "packets sent to upper layer, sum(packetBytes)"
scalar NetworkModified.host[19].wlan[0].mac packetDrop:count 926
attr interpolationmode none
attr source packetDropped
attr title "packet drops, count"
scalar NetworkModified.host[19].wlan[0].mac packetDrop:sum(packetBytes) 70980
attr interpolationmode none
attr source packetDropped
attr title "packet drops, sum(packetBytes)"
scalar NetworkModified.host[19].wlan[0].mac packetDropIncorrectlyReceived:count 66
attr interpolationmode none
attr source packetDropReasonIsIncorrectlyReceived(packetDropped)
attr title "packet drops: incorrectly received, count"
scalar NetworkModified.host[19].wlan[0].mac packetDropIncorrectlyReceived:sum(packetBytes) 5216
attr interpolationmode none
attr source packetDropReasonIsIncorrectlyReceived(packetDropped)
attr title "packet drops: incorrectly received, sum(packetBytes)"
scalar NetworkModified.host[19].wlan[0].mac packetDropNotAddressedToUs:count 860
attr interpolationmode none
attr source packetDropReasonIsNotAddressedToUs(packetDropped)
attr title "packet drops: not addressed to us, count"
scalar NetworkModified.host[19].wlan[0].mac packetDropNotAddressedToUs:sum(packetBytes) 65764
attr interpolationmode none
attr source packetDropReasonIsNotAddressedToUs(packetDropped)
attr title "packet drops: not addressed to us, sum(packetBytes)"
scalar NetworkModified.host[19].wlan[0].mac packetDropQueueOverflow:count 0
attr interpolationmode none
attr source packetDropReasonIsQueueOverflow(packetDropped)
attr title "packet drops: queue overflow, count"
scalar NetworkModified.host[19].wlan[0].mac packetDropQueueOverflow:sum(packetBytes) 0
attr interpolationmode none
attr source packetDropReasonIsQueueOverflow(packetDropped)
attr title "packet drops: queue overflow, sum(packetBytes)"
scalar NetworkModified.host[19].wlan[0].mac packetDropRetryLimitReached:count 0
attr interpolationmode none
attr source packetDropReasonIsRetryLimitReached(packetDropped)
attr title "packet drops: retry limit reached, count"
scalar NetworkModified.host[19].wlan[0].mac packetDropRetryLimitReached:sum(packetBytes) 0
attr interpolationmode none
attr source packetDropReasonIsRetryLimitReached(packetDropped)
attr title "packet drops: retry limit reached, sum(packetBytes)"
scalar NetworkModified.host[19].wlan[0].mac packetDropDuplicateDetected:count 0
attr interpolationmode none
attr source packetDropReasonIsDuplicateDetected(packetDropped)
attr title "packet drops: duplicate detected, count"
scalar NetworkModified.host[19].wlan[0].mac packetDropDuplicateDetected:sum(packetBytes) 0
attr interpolationmode none
attr source packetDropReasonIsDuplicateDetected(packetDropped)
attr title "packet drops: duplicate detected, sum(packetBytes)"
scalar NetworkModified.host[19].wlan[0].mac packetDropOther:count 0
attr interpolationmode none
attr source packetDropReasonIsOther(packetDropped)
attr title "packet drops: other, count"
scalar NetworkModified.host[19].wlan[0].mac packetDropOther:sum(packetBytes) 0
attr interpolationmode none
attr source packetDropReasonIsOther(packetDropped)
attr title "packet drops: other, sum(packetBytes)"
scalar NetworkModified.host[19].wlan[0].mac linkBroken:count 0
attr interpolationmode none
attr title "link breaks, count"
statistic NetworkModified.host[19].wlan[0].radio radioChannel:histogram
field count 1
field mean 0
field stddev -nan
field min 0
field max 0
field sum 0
field sqrsum 0
attr interpolationmode sample-hold
attr source radioChannelChanged
attr title "Radio channel, histogram"
bin	-inf	0
bin	-0.5	0
bin	-0.48	0
bin	-0.46	0
bin	-0.44	0
bin	-0.42	0
bin	-0.4	0
bin	-0.38	0
bin	-0.36	0
bin	-0.34	0
bin	-0.32	0
bin	-0.3	0
bin	-0.28	0
bin	-0.26	0
bin	-0.24	0
bin	-0.22	0
bin	-0.2	0
bin	-0.18	0
bin	-0.16	0
bin	-0.14	0
bin	-0.12	0
bin	-0.1	0
bin	-0.08	0
bin	-0.06	0
bin	-0.04	0
bin	-0.02	0
bin	0	1
bin	0.02	0
bin	0.04	0
bin	0.06	0
bin	0.08	0
bin	0.1	0
bin	0.12	0
bin	0.14	0
bin	0.16	0
bin	0.18	0
bin	0.2	0
bin	0.22	0
bin	0.24	0
bin	0.26	0
bin	0.28	0
bin	0.3	0
bin	0.32	0
bin	0.34	0
bin	0.36	0
bin	0.38	0
bin	0.4	0
bin	0.42	0
bin	0.44	0
bin	0.46	0
bin	0.48	0
bin	0.5	0
scalar NetworkModified.host[19].wlan[0].radio radioMode:count 143
attr interpolationmode sample-hold
attr source radioModeChanged
attr title "Radio mode, count"
scalar NetworkModified.host[19].wlan[0].radio receptionState:count 2174
attr interpolationmode sample-hold
attr source receptionStateChanged
attr title "Radio reception state, count"
scalar NetworkModified.host[19].wlan[0].radio transmissionState:count 280
attr interpolationmode sample-hold
attr source transmissionStateChanged
attr title "Radio transmission state, count"
statistic NetworkModified.host[19].wlan[0].radio minSnir:histogram
field count 996
field mean 10002.221562687
field stddev 23116.608347825
field min 0.0086986593061323
field max 251181.69818184
field sum 9962212.676436
field sqrsum 631349952043.51
attr source minimumSnir(packetSentToUpper)
attr title "Min SNIR, histogram"
bin	-inf	0
bin	0	627
bin	5000	137
bin	10000	72
bin	15000	39
bin	20000	26
bin	25000	17
bin	30000	15
bin	35000	8
bin	40000	8
bin	45000	3
bin	50000	10
bin	55000	3
bin	60000	2
bin	65000	3
bin	70000	3
bin	75000	5
bin	80000	2
bin	85000	2
bin	90000	1
bin	95000	0
bin	100000	1
bin	105000	0
bin	110000	2
bin	115000	0
bin	120000	1
bin	125000	0
bin	130000	0
bin	135000	2
bin	140000	1
bin	145000	0
bin	150000	0
bin	155000	1
bin	160000	0
bin	165000	0
bin	170000	0
bin	175000	0
bin	180000	0
bin	185000	0
bin	190000	0
bin	195000	0
bin	200000	1
bin	205000	0
bin	210000	0
bin	215000	1
bin	220000	2
bin	225000	0
bin	230000	0
bin	235000	0
bin	240000	0
bin	245000	0
bin	250000	1
bin	255000	0
bin	260000	0
bin	265000	0
bin	270000	0
bin	275000	0
statistic NetworkModified.host[19].wlan[0].radio packetErrorRate:histogram
field count 996
field mean 0.06403595729886
field stddev 0.2424054310864
field min 0
field max 1
field sum 63.779813469665
field sqrsum 62.550792466955
attr source packetErrorRate(packetSentToUpper)
attr title "Packet error rate, histogram"
bin	-inf	0
bin	0	928
bin	0.02	0
bin	0.04	1
bin	0.06	0
bin	0.08	0
bin	0.1	0
bin	0.12	0
bin	0.14	0
bin	0.16	0
bin	0.18	1
bin	0.2	0
bin	0.22	0
bin	0.24	1
bin	0.26	0
bin	0.28	0
bin	0.3	0
bin	0.32	1
bin	0.34	0
bin	0.36	0
bin	0.38	0
bin	0.4	0
bin	0.42	0
bin	0.44	1
bin	0.46	0
bin	0.48	0
bin	0.5	0
bin	0.52	0
bin	0.54	0
bin	0.56	1
bin	0.58	0
bin	0.6	0
bin	0.62	0
bin	0.64	0
bin	0.66	0
bin	0.68	0
bin	0.7	0
bin	0.72	0
bin	0.74	0
bin	0.76	0
bin	0.78	0
bin	0.8	0
bin	0.82	0
bin	0.84	0
bin	0.86	0
bin	0.88	0
bin	0.9	0
bin	0.92	1
bin	0.94	0
bin	0.96	0
bin	0.98	6
bin	1	55
bin	1.02	0
bin	1.04	0
bin	1.06	0
bin	1.08	0
bin	1.1	0
bin	1.12	0
bin	1.14	0
bin	1.16	0
bin	1.18	0
bin	1.2	0
bin	1.22	0
bin	1.24	0
bin	1.26	0
statistic NetworkModified.host[19].wlan[0].radio bitErrorRate:histogram
field count 0
field mean -nan
field stddev -nan
field min -nan
field max -nan
field sum 0
field sqrsum 0
attr source bitErrorRate(packetSentToUpper)
attr title "Bit error rate, histogram"
bin	-inf	0
bin	0	0
bin	1	0
statistic NetworkModified.host[19].wlan[0].radio symbolErrorRate:histogram
field count 0
field mean -nan
field stddev -nan
field min -nan
field max -nan
field sum 0
field sqrsum 0
attr source symbolErrorRate(packetSentToUpper)
attr title "Symbol error rate, histogram"
bin	-inf	0
bin	0	0
bin	1	0
scalar NetworkModified.host[19].udp packetReceived:count 70
attr interpolationmode none
attr source packetReceived
attr title "packets received, count"
scalar NetworkModified.host[19].udp packetReceived:sum(packetBytes) 7560
attr interpolationmode none
attr source packetReceived
attr title "packets received, sum(packetBytes)"
scalar NetworkModified.host[19].udp packetSent:count 0
attr interpolationmode none
attr source packetSent
attr title "packets sent, count"
scalar NetworkModified.host[19].udp packetSent:sum(packetBytes) 0
attr interpolationmode none
attr source packetSent
attr title "packets sent, sum(packetBytes)"
scalar NetworkModified.host[19].udp passedUpPk:count 70
attr interpolationmode none
attr source packetSentToUpper
attr title "packets passed up, count"
scalar NetworkModified.host[19].udp droppedPkWrongPort:count 0
attr interpolationmode none
attr source packetDropReasonIsNoPortFound(packetDropped)
attr title "packets dropped (wrong port), count"
scalar NetworkModified.host[19].udp droppedPkBadChecksum:count 0
attr interpolationmode none
attr source packetDropReasonIsIncorrectlyReceived(packetDropped)
attr title "packets dropped (checksum error), count"
scalar NetworkModified.host[19].app[0] packetReceived:count 70
attr interpolationmode none
attr source packetReceived
attr title "packets received, count"
scalar NetworkModified.host[19].app[0] packetReceived:sum(packetBytes) 7000
attr interpolationmode none
attr source packetReceived
attr title "packets received, sum(packetBytes)"
statistic NetworkModified.host[19].app[0] endToEndDelay:histogram
field count 70
field mean 0.043118563436643
field stddev 0.10287615613198
field min 0.000930158666
field max 0.506878483871
field sum 3.018299440565
field sqrsum 0.86040647743265
attr interpolationmode none
attr source dataAge(packetReceived)
attr title "end-to-end delay, histogram"
attr unit s
bin	-inf	0
bin	0	53
bin	0.01	2
bin	0.02	1
bin	0.03	1
bin	0.04	0
bin	0.05	0
bin	0.06	0
bin	0.07	0
bin	0.08	0
bin	0.09	1
bin	0.1	1
bin	0.11	0
bin	0.12	4
bin	0.13	0
bin	0.14	1
bin	0.15	1
bin	0.16	0
bin	0.17	0
bin	0.18	0
bin	0.19	1
bin	0.2	0
bin	0.21	0
bin	0.22	0
bin	0.23	0
bin	0.24	0
bin	0.25	0
bin	0.26	1
bin	0.27	0
bin	0.28	0
bin	0.29	0
bin	0.3	0
bin	0.31	0
bin	0.32	0
bin	0.33	0
bin	0.34	0
bin	0.35	0
bin	0.36	1
bin	0.37	0
bin	0.38	0
bin	0.39	0
bin	0.4	0
bin	0.41	0
bin	0.42	0
bin	0.43	0
bin	0.44	0
bin	0.45	0
bin	0.46	0
bin	0.47	0
bin	0.48	1
bin	0.49	0
bin	0.5	1
bin	0.51	0
bin	0.52	0
bin	0.53	0
bin	0.54	0
bin	0.55	0
bin	0.56	0
bin	0.57	0
bin	0.58	0
bin	0.59	0
bin	0.6	0
bin	0.61	0
bin	0.62	0
bin	0.63	0
bin	0.64	0

