file 356438 1590419105                                          
version 2
run Static-0-20200525-16:43:58-30509
attr configname Static
attr datetime 20200525-16:43:58
attr experiment Static
attr inifile omnetpp.ini
attr iterationvars ""
attr iterationvarsf ""
attr measurement ""
attr network NetworkModified
attr processid 30509
attr repetition 0
attr replication #0
attr resultdir results
attr runnumber 0
attr seedset 0
param **.host[*].mobility.typename "\"StationaryMobility\""
param **.host[*].mobility.initFromDisplayString false
param **.number 20
param **.networkConfiguratorModule "\"networkConfigurator\""
param **.networkConfigurator.config "xmldoc(\"lessnodes.xml\")"
param **.host[*].hasIpv4 false
param **.host[*].hasIpv6 false
param **.host[*].hasGn true
param **.host[*].generic.typename "\"NextHopNetworkLayer\""
param **.host[*].generic.nextHop.hopLimit 4
param **.numApps 1
param **.radioMedium.pathLoss.typename "\"LogNormalShadowing\""
param **.radioMedium.pathLoss.alpha 3
param **.radioMedium.pathLoss.sigma 7
param **.networkConfigurator.typename "\"NextHopNetworkConfigurator\""
param *.host[*].wlan[2].radio.displayCommunicationRange true
param *.visualizer.sceneVisualizer.descriptionFigure "\"title\""
param *.visualizer.mediumVisualizer.displaySignals true
param *.visualizer.physicalLinkVisualizer.displayLinks true
param *.host[*].wlan[0].radio.transmitter.communicationRange 200m
param *.host[*].wlan[0].radio.displayCommunicationRange true
param **.host[4..19].app[0].typename "\"UdpSink\""
param **.host[4..19].app[0].localPort 7654
param **.host[0..3].app[0].typename "\"UdpBasicApp\""
param **.host[0..3].app[0].destPort 7654
param **.host[0].app[0].destAddresses "\"host[16]\""
param **.host[1].app[0].destAddresses "\"host[17]\""
param **.host[2].app[0].destAddresses "\"host[18]\""
param **.host[3].app[0].destAddresses "\"host[19]\""
param **.host[0..3].app[0].messageLength 100B
param **.host[0..3].app[0].startTime "uniform(0s, 10ms)"
param **.host[0..3].app[0].sendInterval 20ms
param **.host[0].app[0].packetName "\"UDP_Data_Sender0\""
param **.host[1].app[0].packetName "\"UDP_Data_Sender1\""
param **.host[2].app[0].packetName "\"UDP_Data_Sender2\""
param **.host[3].app[0].packetName "\"UDP_Data_Sender3\""
param **.host[0].generic.nextHop.nextHopParam "\"host[4].wlan[0]\""
param **.host[1].generic.nextHop.nextHopParam "\"host[7].wlan[0]\""
param **.host[2].generic.nextHop.nextHopParam "\"host[10].wlan[0]\""
param **.host[3].generic.nextHop.nextHopParam "\"host[13].wlan[0]\""
param **.host[4].generic.nextHop.nextHopParam "\"host[5].wlan[0]\""
param **.host[5].generic.nextHop.nextHopParam "\"host[6].wlan[0]\""
param **.host[6].generic.nextHop.nextHopParam "\"host[16].wlan[0]\""
param **.host[7].generic.nextHop.nextHopParam "\"host[8].wlan[0]\""
param **.host[8].generic.nextHop.nextHopParam "\"host[9].wlan[0]\""
param **.host[9].generic.nextHop.nextHopParam "\"host[17].wlan[0]\""
param **.host[10].generic.nextHop.nextHopParam "\"host[11].wlan[0]\""
param **.host[11].generic.nextHop.nextHopParam "\"host[12].wlan[0]\""
param **.host[12].generic.nextHop.nextHopParam "\"host[18].wlan[0]\""
param **.host[13].generic.nextHop.nextHopParam "\"host[14].wlan[0]\""
param **.host[14].generic.nextHop.nextHopParam "\"host[15].wlan[0]\""
param **.host[15].generic.nextHop.nextHopParam "\"host[19].wlan[0]\""
param **.host[16].generic.nextHop.nextHopParam "\"host[16].wlan[0]\""
param **.host[17].generic.nextHop.nextHopParam "\"host[17].wlan[0]\""
param **.host[18].generic.nextHop.nextHopParam "\"host[18].wlan[0]\""
param **.host[19].generic.nextHop.nextHopParam "\"host[19].wlan[0]\""
param **.host[*].mobility.initialZ 0m
param **.host[0].mobility.initialX 100m
param **.host[0].mobility.initialY 100m
param **.host[1].mobility.initialX 100m
param **.host[1].mobility.initialY 250m
param **.host[2].mobility.initialX 100m
param **.host[2].mobility.initialY 400m
param **.host[3].mobility.initialX 100m
param **.host[3].mobility.initialY 550m
param **.host[4].mobility.initialX 150m
param **.host[4].mobility.initialY 100m
param **.host[5].mobility.initialX 200m
param **.host[5].mobility.initialY 100m
param **.host[6].mobility.initialX 250m
param **.host[6].mobility.initialY 100m
param **.host[7].mobility.initialX 150m
param **.host[7].mobility.initialY 250m
param **.host[8].mobility.initialX 200m
param **.host[8].mobility.initialY 250m
param **.host[9].mobility.initialX 250m
param **.host[9].mobility.initialY 250m
param **.host[10].mobility.initialX 150m
param **.host[10].mobility.initialY 400m
param **.host[11].mobility.initialX 200m
param **.host[11].mobility.initialY 400m
param **.host[12].mobility.initialX 250m
param **.host[12].mobility.initialY 400m
param **.host[13].mobility.initialX 150m
param **.host[13].mobility.initialY 550m
param **.host[14].mobility.initialX 200m
param **.host[14].mobility.initialY 550m
param **.host[15].mobility.initialX 250m
param **.host[15].mobility.initialY 550m
param **.host[16].mobility.initialX 300m
param **.host[16].mobility.initialY 100m
param **.host[17].mobility.initialX 300m
param **.host[17].mobility.initialY 250m
param **.host[18].mobility.initialX 300m
param **.host[18].mobility.initialY 400m
param **.host[19].mobility.initialX 300m
param **.host[19].mobility.initialY 550m
param **.constraintAreaMaxX 1000m
param **.constraintAreaMaxY 1000m
param **.constraintAreaMaxZ 0m
param **.constraintAreaMinX 0m
param **.constraintAreaMinY 0m
param **.constraintAreaMinZ 0m

vector 0 NetworkModified.host[0].wlan[0].radio radioMode:vector ETV
attr interpolationmode sample-hold
attr source radioModeChanged
attr title "Radio mode, vector"
vector 1 NetworkModified.host[0].wlan[0].radio radioChannel:vector ETV
attr interpolationmode sample-hold
attr source radioChannelChanged
attr title "Radio channel, vector"
vector 2 NetworkModified.host[1].wlan[0].radio radioMode:vector ETV
attr interpolationmode sample-hold
attr source radioModeChanged
attr title "Radio mode, vector"
vector 3 NetworkModified.host[1].wlan[0].radio radioChannel:vector ETV
attr interpolationmode sample-hold
attr source radioChannelChanged
attr title "Radio channel, vector"
vector 4 NetworkModified.host[2].wlan[0].radio radioMode:vector ETV
attr interpolationmode sample-hold
attr source radioModeChanged
attr title "Radio mode, vector"
vector 5 NetworkModified.host[2].wlan[0].radio radioChannel:vector ETV
attr interpolationmode sample-hold
attr source radioChannelChanged
attr title "Radio channel, vector"
vector 6 NetworkModified.host[3].wlan[0].radio radioMode:vector ETV
attr interpolationmode sample-hold
attr source radioModeChanged
attr title "Radio mode, vector"
vector 7 NetworkModified.host[3].wlan[0].radio radioChannel:vector ETV
attr interpolationmode sample-hold
attr source radioChannelChanged
attr title "Radio channel, vector"
vector 8 NetworkModified.host[4].wlan[0].radio radioMode:vector ETV
attr interpolationmode sample-hold
attr source radioModeChanged
attr title "Radio mode, vector"
vector 9 NetworkModified.host[4].wlan[0].radio radioChannel:vector ETV
attr interpolationmode sample-hold
attr source radioChannelChanged
attr title "Radio channel, vector"
vector 10 NetworkModified.host[5].wlan[0].radio radioMode:vector ETV
attr interpolationmode sample-hold
attr source radioModeChanged
attr title "Radio mode, vector"
vector 11 NetworkModified.host[5].wlan[0].radio radioChannel:vector ETV
attr interpolationmode sample-hold
attr source radioChannelChanged
attr title "Radio channel, vector"
vector 12 NetworkModified.host[6].wlan[0].radio radioMode:vector ETV
attr interpolationmode sample-hold
attr source radioModeChanged
attr title "Radio mode, vector"
vector 13 NetworkModified.host[6].wlan[0].radio radioChannel:vector ETV
attr interpolationmode sample-hold
attr source radioChannelChanged
attr title "Radio channel, vector"
vector 14 NetworkModified.host[7].wlan[0].radio radioMode:vector ETV
attr interpolationmode sample-hold
attr source radioModeChanged
attr title "Radio mode, vector"
vector 15 NetworkModified.host[7].wlan[0].radio radioChannel:vector ETV
attr interpolationmode sample-hold
attr source radioChannelChanged
attr title "Radio channel, vector"
vector 16 NetworkModified.host[8].wlan[0].radio radioMode:vector ETV
attr interpolationmode sample-hold
attr source radioModeChanged
attr title "Radio mode, vector"
vector 17 NetworkModified.host[8].wlan[0].radio radioChannel:vector ETV
attr interpolationmode sample-hold
attr source radioChannelChanged
attr title "Radio channel, vector"
vector 18 NetworkModified.host[9].wlan[0].radio radioMode:vector ETV
attr interpolationmode sample-hold
attr source radioModeChanged
attr title "Radio mode, vector"
vector 19 NetworkModified.host[9].wlan[0].radio radioChannel:vector ETV
attr interpolationmode sample-hold
attr source radioChannelChanged
attr title "Radio channel, vector"
vector 20 NetworkModified.host[10].wlan[0].radio radioMode:vector ETV
attr interpolationmode sample-hold
attr source radioModeChanged
attr title "Radio mode, vector"
vector 21 NetworkModified.host[10].wlan[0].radio radioChannel:vector ETV
attr interpolationmode sample-hold
attr source radioChannelChanged
attr title "Radio channel, vector"
vector 22 NetworkModified.host[11].wlan[0].radio radioMode:vector ETV
attr interpolationmode sample-hold
attr source radioModeChanged
attr title "Radio mode, vector"
vector 23 NetworkModified.host[11].wlan[0].radio radioChannel:vector ETV
attr interpolationmode sample-hold
attr source radioChannelChanged
attr title "Radio channel, vector"
vector 24 NetworkModified.host[12].wlan[0].radio radioMode:vector ETV
attr interpolationmode sample-hold
attr source radioModeChanged
attr title "Radio mode, vector"
vector 25 NetworkModified.host[12].wlan[0].radio radioChannel:vector ETV
attr interpolationmode sample-hold
attr source radioChannelChanged
attr title "Radio channel, vector"
vector 26 NetworkModified.host[13].wlan[0].radio radioMode:vector ETV
attr interpolationmode sample-hold
attr source radioModeChanged
attr title "Radio mode, vector"
vector 27 NetworkModified.host[13].wlan[0].radio radioChannel:vector ETV
attr interpolationmode sample-hold
attr source radioChannelChanged
attr title "Radio channel, vector"
vector 28 NetworkModified.host[14].wlan[0].radio radioMode:vector ETV
attr interpolationmode sample-hold
attr source radioModeChanged
attr title "Radio mode, vector"
vector 29 NetworkModified.host[14].wlan[0].radio radioChannel:vector ETV
attr interpolationmode sample-hold
attr source radioChannelChanged
attr title "Radio channel, vector"
vector 30 NetworkModified.host[15].wlan[0].radio radioMode:vector ETV
attr interpolationmode sample-hold
attr source radioModeChanged
attr title "Radio mode, vector"
vector 31 NetworkModified.host[15].wlan[0].radio radioChannel:vector ETV
attr interpolationmode sample-hold
attr source radioChannelChanged
attr title "Radio channel, vector"
vector 32 NetworkModified.host[16].wlan[0].radio radioMode:vector ETV
attr interpolationmode sample-hold
attr source radioModeChanged
attr title "Radio mode, vector"
vector 33 NetworkModified.host[16].wlan[0].radio radioChannel:vector ETV
attr interpolationmode sample-hold
attr source radioChannelChanged
attr title "Radio channel, vector"
vector 34 NetworkModified.host[17].wlan[0].radio radioMode:vector ETV
attr interpolationmode sample-hold
attr source radioModeChanged
attr title "Radio mode, vector"
vector 35 NetworkModified.host[17].wlan[0].radio radioChannel:vector ETV
attr interpolationmode sample-hold
attr source radioChannelChanged
attr title "Radio channel, vector"
vector 36 NetworkModified.host[18].wlan[0].radio radioMode:vector ETV
attr interpolationmode sample-hold
attr source radioModeChanged
attr title "Radio mode, vector"
vector 37 NetworkModified.host[18].wlan[0].radio radioChannel:vector ETV
attr interpolationmode sample-hold
attr source radioChannelChanged
attr title "Radio channel, vector"
vector 38 NetworkModified.host[19].wlan[0].radio radioMode:vector ETV
attr interpolationmode sample-hold
attr source radioModeChanged
attr title "Radio mode, vector"
vector 39 NetworkModified.host[19].wlan[0].radio radioChannel:vector ETV
attr interpolationmode sample-hold
attr source radioChannelChanged
attr title "Radio channel, vector"
vector 40 NetworkModified.host[0].wlan[0].radio receptionState:vector ETV
attr interpolationmode sample-hold
attr source receptionStateChanged
attr title "Radio reception state, vector"
vector 41 NetworkModified.host[1].wlan[0].radio receptionState:vector ETV
attr interpolationmode sample-hold
attr source receptionStateChanged
attr title "Radio reception state, vector"
vector 42 NetworkModified.host[2].wlan[0].radio receptionState:vector ETV
attr interpolationmode sample-hold
attr source receptionStateChanged
attr title "Radio reception state, vector"
vector 43 NetworkModified.host[3].wlan[0].radio receptionState:vector ETV
attr interpolationmode sample-hold
attr source receptionStateChanged
attr title "Radio reception state, vector"
vector 44 NetworkModified.host[4].wlan[0].radio receptionState:vector ETV
attr interpolationmode sample-hold
attr source receptionStateChanged
attr title "Radio reception state, vector"
vector 45 NetworkModified.host[5].wlan[0].radio receptionState:vector ETV
attr interpolationmode sample-hold
attr source receptionStateChanged
attr title "Radio reception state, vector"
vector 46 NetworkModified.host[6].wlan[0].radio receptionState:vector ETV
attr interpolationmode sample-hold
attr source receptionStateChanged
attr title "Radio reception state, vector"
vector 47 NetworkModified.host[7].wlan[0].radio receptionState:vector ETV
attr interpolationmode sample-hold
attr source receptionStateChanged
attr title "Radio reception state, vector"
vector 48 NetworkModified.host[8].wlan[0].radio receptionState:vector ETV
attr interpolationmode sample-hold
attr source receptionStateChanged
attr title "Radio reception state, vector"
vector 49 NetworkModified.host[9].wlan[0].radio receptionState:vector ETV
attr interpolationmode sample-hold
attr source receptionStateChanged
attr title "Radio reception state, vector"
vector 50 NetworkModified.host[10].wlan[0].radio receptionState:vector ETV
attr interpolationmode sample-hold
attr source receptionStateChanged
attr title "Radio reception state, vector"
vector 51 NetworkModified.host[11].wlan[0].radio receptionState:vector ETV
attr interpolationmode sample-hold
attr source receptionStateChanged
attr title "Radio reception state, vector"
vector 52 NetworkModified.host[12].wlan[0].radio receptionState:vector ETV
attr interpolationmode sample-hold
attr source receptionStateChanged
attr title "Radio reception state, vector"
vector 53 NetworkModified.host[13].wlan[0].radio receptionState:vector ETV
attr interpolationmode sample-hold
attr source receptionStateChanged
attr title "Radio reception state, vector"
vector 54 NetworkModified.host[14].wlan[0].radio receptionState:vector ETV
attr interpolationmode sample-hold
attr source receptionStateChanged
attr title "Radio reception state, vector"
vector 55 NetworkModified.host[15].wlan[0].radio receptionState:vector ETV
attr interpolationmode sample-hold
attr source receptionStateChanged
attr title "Radio reception state, vector"
vector 56 NetworkModified.host[16].wlan[0].radio receptionState:vector ETV
attr interpolationmode sample-hold
attr source receptionStateChanged
attr title "Radio reception state, vector"
vector 57 NetworkModified.host[17].wlan[0].radio receptionState:vector ETV
attr interpolationmode sample-hold
attr source receptionStateChanged
attr title "Radio reception state, vector"
vector 58 NetworkModified.host[18].wlan[0].radio receptionState:vector ETV
attr interpolationmode sample-hold
attr source receptionStateChanged
attr title "Radio reception state, vector"
vector 59 NetworkModified.host[19].wlan[0].radio receptionState:vector ETV
attr interpolationmode sample-hold
attr source receptionStateChanged
attr title "Radio reception state, vector"
vector 60 NetworkModified.host[0].wlan[0].mac.dcf.recoveryProcedure contentionWindowChanged:vector ETV
attr interpolationmode sample-hold
attr title "contention window, vector"
vector 61 NetworkModified.host[1].wlan[0].mac.dcf.recoveryProcedure contentionWindowChanged:vector ETV
attr interpolationmode sample-hold
attr title "contention window, vector"
vector 62 NetworkModified.host[2].wlan[0].mac.dcf.recoveryProcedure contentionWindowChanged:vector ETV
attr interpolationmode sample-hold
attr title "contention window, vector"
vector 63 NetworkModified.host[3].wlan[0].mac.dcf.recoveryProcedure contentionWindowChanged:vector ETV
attr interpolationmode sample-hold
attr title "contention window, vector"
vector 64 NetworkModified.host[4].wlan[0].mac.dcf.recoveryProcedure contentionWindowChanged:vector ETV
attr interpolationmode sample-hold
attr title "contention window, vector"
vector 65 NetworkModified.host[5].wlan[0].mac.dcf.recoveryProcedure contentionWindowChanged:vector ETV
attr interpolationmode sample-hold
attr title "contention window, vector"
vector 66 NetworkModified.host[6].wlan[0].mac.dcf.recoveryProcedure contentionWindowChanged:vector ETV
attr interpolationmode sample-hold
attr title "contention window, vector"
vector 67 NetworkModified.host[7].wlan[0].mac.dcf.recoveryProcedure contentionWindowChanged:vector ETV
attr interpolationmode sample-hold
attr title "contention window, vector"
vector 68 NetworkModified.host[8].wlan[0].mac.dcf.recoveryProcedure contentionWindowChanged:vector ETV
attr interpolationmode sample-hold
attr title "contention window, vector"
vector 69 NetworkModified.host[9].wlan[0].mac.dcf.recoveryProcedure contentionWindowChanged:vector ETV
attr interpolationmode sample-hold
attr title "contention window, vector"
vector 70 NetworkModified.host[10].wlan[0].mac.dcf.recoveryProcedure contentionWindowChanged:vector ETV
attr interpolationmode sample-hold
attr title "contention window, vector"
vector 71 NetworkModified.host[11].wlan[0].mac.dcf.recoveryProcedure contentionWindowChanged:vector ETV
attr interpolationmode sample-hold
attr title "contention window, vector"
vector 72 NetworkModified.host[12].wlan[0].mac.dcf.recoveryProcedure contentionWindowChanged:vector ETV
attr interpolationmode sample-hold
attr title "contention window, vector"
vector 73 NetworkModified.host[13].wlan[0].mac.dcf.recoveryProcedure contentionWindowChanged:vector ETV
attr interpolationmode sample-hold
attr title "contention window, vector"
vector 74 NetworkModified.host[14].wlan[0].mac.dcf.recoveryProcedure contentionWindowChanged:vector ETV
attr interpolationmode sample-hold
attr title "contention window, vector"
vector 75 NetworkModified.host[15].wlan[0].mac.dcf.recoveryProcedure contentionWindowChanged:vector ETV
attr interpolationmode sample-hold
attr title "contention window, vector"
vector 76 NetworkModified.host[16].wlan[0].mac.dcf.recoveryProcedure contentionWindowChanged:vector ETV
attr interpolationmode sample-hold
attr title "contention window, vector"
vector 77 NetworkModified.host[17].wlan[0].mac.dcf.recoveryProcedure contentionWindowChanged:vector ETV
attr interpolationmode sample-hold
attr title "contention window, vector"
vector 78 NetworkModified.host[18].wlan[0].mac.dcf.recoveryProcedure contentionWindowChanged:vector ETV
attr interpolationmode sample-hold
attr title "contention window, vector"
vector 79 NetworkModified.host[19].wlan[0].mac.dcf.recoveryProcedure contentionWindowChanged:vector ETV
attr interpolationmode sample-hold
attr title "contention window, vector"
vector 80 NetworkModified.host[0].app[0] packetSent:vector(packetBytes) ETV
attr interpolationmode none
attr source packetSent
attr title "packets sent, vector(packetBytes)"
vector 81 NetworkModified.host[0].udp packetSent:vector(packetBytes) ETV
attr interpolationmode none
attr source packetSent
attr title "packets sent, vector(packetBytes)"
vector 82 NetworkModified.host[0].wlan[0].mac packetReceivedFromUpper:vector(packetBytes) ETV
attr interpolationmode none
attr title "packets received from upper layer, vector(packetBytes)"
vector 83 NetworkModified.host[0].wlan[0].mac.dcf.channelAccess.pendingQueue packetPushed:vector(packetBytes) ETV
attr interpolationmode none
attr title "packet pushed, vector(packetBytes)"
vector 84 NetworkModified.host[0].wlan[0].mac.dcf.channelAccess.pendingQueue queueLength:vector ETV
attr interpolationmode sample-hold
attr source "count(packetPushed) - count(packetPopped) - count(packetRemoved) - count(packetDropped)"
attr title "queue length, vector"
vector 85 NetworkModified.host[0].wlan[0].mac.dcf.channelAccess.contention backoffPeriodGenerated:vector ETV
attr interpolationmode none
attr title "backoff periods, vector"
vector 86 NetworkModified.host[0].wlan[0].mac.dcf.channelAccess.contention backoffActive:vector ETV
attr interpolationmode sample-hold
attr source count(backoffStarted)-count(backoffStopped)
attr title "backoff active, vector"
vector 87 NetworkModified.host[0].wlan[0].mac.dcf.channelAccess.pendingQueue packetPopped:vector(packetBytes) ETV
attr interpolationmode none
attr title "packet popped, vector(packetBytes)"
vector 88 NetworkModified.host[0].wlan[0].mac.dcf.channelAccess.pendingQueue queueingTime:vector ETV
attr interpolationmode none
attr source queueingTime(packetPopped)
attr title "queueing times, vector"
attr unit s
vector 89 NetworkModified.host[0].wlan[0].mac.dcf.channelAccess.inProgressFrames queueLength:vector ETV
attr interpolationmode sample-hold
attr source "count(packetEnqueued) - count(packetDequeued)"
attr title "queue length, vector"
vector 90 NetworkModified.host[0].wlan[0].mac.dcf datarateSelected:vector ETV
attr interpolationmode none
attr title "datarates selected, vector"
vector 91 NetworkModified.host[0].wlan[0].mac packetSentToLower:vector(packetBytes) ETV
attr interpolationmode none
attr title "packets sent to lower layer, vector(packetBytes)"
vector 92 NetworkModified.host[0].wlan[0].mac.dcf frameSequenceActive:vector ETV
attr interpolationmode sample-hold
attr source count(frameSequenceStarted)-count(frameSequenceFinished)
attr title "frame sequence active, vector"
vector 93 NetworkModified.host[0].wlan[0].radio transmissionState:vector ETV
attr interpolationmode sample-hold
attr source transmissionStateChanged
attr title "Radio transmission state, vector"
vector 94 NetworkModified.host[0].wlan[0].mac.dcf packetSentToPeer:vector(packetBytes) ETV
attr interpolationmode none
attr title "packets sent, vector(packetBytes)"
vector 95 NetworkModified.host[0].wlan[0].mac.dcf packetSentToPeerUnicast:vector(packetBytes) ETV
attr interpolationmode none
attr source ieee80211Unicast(packetSentToPeer)
attr title "packets sent: unicast, vector(packetBytes)"
vector 96 NetworkModified.host[0].wlan[0].mac.dcf packetSentToPeerWithoutRetry:vector(packetBytes) ETV
attr interpolationmode none
attr source ieee80211NotRetry(packetSentToPeer)
attr title "packets sent: without retry, vector(packetBytes)"
vector 97 NetworkModified.host[0].wlan[0].mac.rx nav:vector ETV
attr interpolationmode linear
attr source navChanged
attr title "network allocation vector, vector"
vector 98 NetworkModified.host[4].wlan[0].mac packetReceivedFromLower:vector(packetBytes) ETV
attr interpolationmode none
attr title "packets received from lower layer, vector(packetBytes)"
vector 99 NetworkModified.host[4].wlan[0].mac.dcf packetReceivedFromPeer:vector(packetBytes) ETV
attr interpolationmode none
attr title "packets received, vector(packetBytes)"
vector 100 NetworkModified.host[4].wlan[0].mac.dcf packetReceivedFromPeerUnicast:vector(packetBytes) ETV
attr interpolationmode none
attr source ieee80211Unicast(packetReceivedFromPeer)
attr title "packets received: unicast, vector(packetBytes)"
vector 101 NetworkModified.host[4].wlan[0].mac.dcf packetReceivedFromPeerWithoutRetry:vector(packetBytes) ETV
attr interpolationmode none
attr source ieee80211NotRetry(packetReceivedFromPeer)
attr title "packets received: without retry, vector(packetBytes)"
vector 102 NetworkModified.host[4].wlan[0].mac.dcf datarateSelected:vector ETV
attr interpolationmode none
attr title "datarates selected, vector"
vector 103 NetworkModified.host[4].wlan[0].mac packetSentToUpper:vector(packetBytes) ETV
attr interpolationmode none
attr title "packets sent to upper layer, vector(packetBytes)"
vector 104 NetworkModified.host[4].wlan[0].mac packetReceivedFromUpper:vector(packetBytes) ETV
attr interpolationmode none
attr title "packets received from upper layer, vector(packetBytes)"
vector 105 NetworkModified.host[4].wlan[0].mac.dcf.channelAccess.pendingQueue packetPushed:vector(packetBytes) ETV
attr interpolationmode none
attr title "packet pushed, vector(packetBytes)"
vector 106 NetworkModified.host[4].wlan[0].mac.dcf.channelAccess.pendingQueue queueLength:vector ETV
attr interpolationmode sample-hold
attr source "count(packetPushed) - count(packetPopped) - count(packetRemoved) - count(packetDropped)"
attr title "queue length, vector"
vector 107 NetworkModified.host[4].wlan[0].mac.dcf.channelAccess.contention backoffPeriodGenerated:vector ETV
attr interpolationmode none
attr title "backoff periods, vector"
vector 108 NetworkModified.host[4].wlan[0].mac.dcf.channelAccess.contention backoffActive:vector ETV
attr interpolationmode sample-hold
attr source count(backoffStarted)-count(backoffStopped)
attr title "backoff active, vector"
vector 109 NetworkModified.host[5].wlan[0].mac packetReceivedFromLower:vector(packetBytes) ETV
attr interpolationmode none
attr title "packets received from lower layer, vector(packetBytes)"
vector 110 NetworkModified.host[5].wlan[0].mac.rx nav:vector ETV
attr interpolationmode linear
attr source navChanged
attr title "network allocation vector, vector"
vector 111 NetworkModified.host[5].wlan[0].mac.dcf packetDrop:vector(packetBytes) ETV
attr interpolationmode none
attr source packetDropped
attr title "packet drops, vector(packetBytes)"
vector 112 NetworkModified.host[5].wlan[0].mac.dcf packetDropNotAddressedToUs:vector(packetBytes) ETV
attr interpolationmode none
attr source packetDropReasonIsNotAddressedToUs(packetDropped)
attr title "packet drops: not addressed to us, vector(packetBytes)"
vector 113 NetworkModified.host[5].wlan[0].mac packetDrop:vector(packetBytes) ETV
attr interpolationmode none
attr source packetDropped
attr title "packet drops, vector(packetBytes)"
vector 114 NetworkModified.host[5].wlan[0].mac packetDropNotAddressedToUs:vector(packetBytes) ETV
attr interpolationmode none
attr source packetDropReasonIsNotAddressedToUs(packetDropped)
attr title "packet drops: not addressed to us, vector(packetBytes)"
vector 115 NetworkModified.host[1].wlan[0].mac packetReceivedFromLower:vector(packetBytes) ETV
attr interpolationmode none
attr title "packets received from lower layer, vector(packetBytes)"
vector 116 NetworkModified.host[1].wlan[0].mac.rx nav:vector ETV
attr interpolationmode linear
attr source navChanged
attr title "network allocation vector, vector"
vector 117 NetworkModified.host[1].wlan[0].mac.dcf packetDrop:vector(packetBytes) ETV
attr interpolationmode none
attr source packetDropped
attr title "packet drops, vector(packetBytes)"
vector 118 NetworkModified.host[1].wlan[0].mac.dcf packetDropNotAddressedToUs:vector(packetBytes) ETV
attr interpolationmode none
attr source packetDropReasonIsNotAddressedToUs(packetDropped)
attr title "packet drops: not addressed to us, vector(packetBytes)"
vector 119 NetworkModified.host[1].wlan[0].mac packetDrop:vector(packetBytes) ETV
attr interpolationmode none
attr source packetDropped
attr title "packet drops, vector(packetBytes)"
vector 120 NetworkModified.host[1].wlan[0].mac packetDropNotAddressedToUs:vector(packetBytes) ETV
attr interpolationmode none
attr source packetDropReasonIsNotAddressedToUs(packetDropped)
attr title "packet drops: not addressed to us, vector(packetBytes)"
vector 121 NetworkModified.host[4].wlan[0].mac packetSentToLower:vector(packetBytes) ETV
attr interpolationmode none
attr title "packets sent to lower layer, vector(packetBytes)"
vector 122 NetworkModified.host[4].wlan[0].radio transmissionState:vector ETV
attr interpolationmode sample-hold
attr source transmissionStateChanged
attr title "Radio transmission state, vector"
vector 123 NetworkModified.host[4].wlan[0].mac.dcf packetSentToPeer:vector(packetBytes) ETV
attr interpolationmode none
attr title "packets sent, vector(packetBytes)"
vector 124 NetworkModified.host[4].wlan[0].mac.dcf packetSentToPeerUnicast:vector(packetBytes) ETV
attr interpolationmode none
attr source ieee80211Unicast(packetSentToPeer)
attr title "packets sent: unicast, vector(packetBytes)"
vector 125 NetworkModified.host[4].wlan[0].mac.dcf packetSentToPeerWithoutRetry:vector(packetBytes) ETV
attr interpolationmode none
attr source ieee80211NotRetry(packetSentToPeer)
attr title "packets sent: without retry, vector(packetBytes)"
vector 126 NetworkModified.host[0].wlan[0].mac packetReceivedFromLower:vector(packetBytes) ETV
attr interpolationmode none
attr title "packets received from lower layer, vector(packetBytes)"
vector 127 NetworkModified.host[0].wlan[0].mac.dcf packetReceivedFromPeer:vector(packetBytes) ETV
attr interpolationmode none
attr title "packets received, vector(packetBytes)"
vector 128 NetworkModified.host[0].wlan[0].mac.dcf packetReceivedFromPeerUnicast:vector(packetBytes) ETV
attr interpolationmode none
attr source ieee80211Unicast(packetReceivedFromPeer)
attr title "packets received: unicast, vector(packetBytes)"
vector 129 NetworkModified.host[0].wlan[0].mac.dcf packetReceivedFromPeerWithoutRetry:vector(packetBytes) ETV
attr interpolationmode none
attr source ieee80211NotRetry(packetReceivedFromPeer)
attr title "packets received: without retry, vector(packetBytes)"
vector 130 NetworkModified.host[0].wlan[0].mac.dcf.channelAccess.inProgressFrames queueingTime:vector ETV
attr interpolationmode none
attr source queueingTime(packetDequeued)
attr title "queueing times, vector"
vector 131 NetworkModified.host[6].wlan[0].mac packetReceivedFromLower:vector(packetBytes) ETV
attr interpolationmode none
attr title "packets received from lower layer, vector(packetBytes)"
vector 132 NetworkModified.host[6].wlan[0].mac.dcf packetDrop:vector(packetBytes) ETV
attr interpolationmode none
attr source packetDropped
attr title "packet drops, vector(packetBytes)"
vector 133 NetworkModified.host[6].wlan[0].mac.dcf packetDropNotAddressedToUs:vector(packetBytes) ETV
attr interpolationmode none
attr source packetDropReasonIsNotAddressedToUs(packetDropped)
attr title "packet drops: not addressed to us, vector(packetBytes)"
vector 134 NetworkModified.host[6].wlan[0].mac packetDrop:vector(packetBytes) ETV
attr interpolationmode none
attr source packetDropped
attr title "packet drops, vector(packetBytes)"
vector 135 NetworkModified.host[6].wlan[0].mac packetDropNotAddressedToUs:vector(packetBytes) ETV
attr interpolationmode none
attr source packetDropReasonIsNotAddressedToUs(packetDropped)
attr title "packet drops: not addressed to us, vector(packetBytes)"
vector 136 NetworkModified.host[1].app[0] packetSent:vector(packetBytes) ETV
attr interpolationmode none
attr source packetSent
attr title "packets sent, vector(packetBytes)"
vector 137 NetworkModified.host[1].udp packetSent:vector(packetBytes) ETV
attr interpolationmode none
attr source packetSent
attr title "packets sent, vector(packetBytes)"
vector 138 NetworkModified.host[1].wlan[0].mac packetReceivedFromUpper:vector(packetBytes) ETV
attr interpolationmode none
attr title "packets received from upper layer, vector(packetBytes)"
vector 139 NetworkModified.host[1].wlan[0].mac.dcf.channelAccess.pendingQueue packetPushed:vector(packetBytes) ETV
attr interpolationmode none
attr title "packet pushed, vector(packetBytes)"
vector 140 NetworkModified.host[1].wlan[0].mac.dcf.channelAccess.pendingQueue queueLength:vector ETV
attr interpolationmode sample-hold
attr source "count(packetPushed) - count(packetPopped) - count(packetRemoved) - count(packetDropped)"
attr title "queue length, vector"
vector 141 NetworkModified.host[1].wlan[0].mac.dcf.channelAccess.contention backoffPeriodGenerated:vector ETV
attr interpolationmode none
attr title "backoff periods, vector"
vector 142 NetworkModified.host[1].wlan[0].mac.dcf.channelAccess.contention backoffActive:vector ETV
attr interpolationmode sample-hold
attr source count(backoffStarted)-count(backoffStopped)
attr title "backoff active, vector"
vector 143 NetworkModified.host[1].wlan[0].mac.dcf.channelAccess.pendingQueue packetPopped:vector(packetBytes) ETV
attr interpolationmode none
attr title "packet popped, vector(packetBytes)"
vector 144 NetworkModified.host[1].wlan[0].mac.dcf.channelAccess.pendingQueue queueingTime:vector ETV
attr interpolationmode none
attr source queueingTime(packetPopped)
attr title "queueing times, vector"
attr unit s
vector 145 NetworkModified.host[1].wlan[0].mac.dcf.channelAccess.inProgressFrames queueLength:vector ETV
attr interpolationmode sample-hold
attr source "count(packetEnqueued) - count(packetDequeued)"
attr title "queue length, vector"
vector 146 NetworkModified.host[1].wlan[0].mac.dcf datarateSelected:vector ETV
attr interpolationmode none
attr title "datarates selected, vector"
vector 147 NetworkModified.host[1].wlan[0].mac packetSentToLower:vector(packetBytes) ETV
attr interpolationmode none
attr title "packets sent to lower layer, vector(packetBytes)"
vector 148 NetworkModified.host[1].wlan[0].mac.dcf frameSequenceActive:vector ETV
attr interpolationmode sample-hold
attr source count(frameSequenceStarted)-count(frameSequenceFinished)
attr title "frame sequence active, vector"
vector 149 NetworkModified.host[1].wlan[0].radio transmissionState:vector ETV
attr interpolationmode sample-hold
attr source transmissionStateChanged
attr title "Radio transmission state, vector"
vector 150 NetworkModified.host[1].wlan[0].mac.dcf packetSentToPeer:vector(packetBytes) ETV
attr interpolationmode none
attr title "packets sent, vector(packetBytes)"
vector 151 NetworkModified.host[1].wlan[0].mac.dcf packetSentToPeerUnicast:vector(packetBytes) ETV
attr interpolationmode none
attr source ieee80211Unicast(packetSentToPeer)
attr title "packets sent: unicast, vector(packetBytes)"
vector 152 NetworkModified.host[1].wlan[0].mac.dcf packetSentToPeerWithoutRetry:vector(packetBytes) ETV
attr interpolationmode none
attr source ieee80211NotRetry(packetSentToPeer)
attr title "packets sent: without retry, vector(packetBytes)"
vector 153 NetworkModified.host[7].wlan[0].mac packetReceivedFromLower:vector(packetBytes) ETV
attr interpolationmode none
attr title "packets received from lower layer, vector(packetBytes)"
vector 154 NetworkModified.host[7].wlan[0].mac.dcf packetReceivedFromPeer:vector(packetBytes) ETV
attr interpolationmode none
attr title "packets received, vector(packetBytes)"
vector 155 NetworkModified.host[7].wlan[0].mac.dcf packetReceivedFromPeerUnicast:vector(packetBytes) ETV
attr interpolationmode none
attr source ieee80211Unicast(packetReceivedFromPeer)
attr title "packets received: unicast, vector(packetBytes)"
vector 156 NetworkModified.host[7].wlan[0].mac.dcf packetReceivedFromPeerWithoutRetry:vector(packetBytes) ETV
attr interpolationmode none
attr source ieee80211NotRetry(packetReceivedFromPeer)
attr title "packets received: without retry, vector(packetBytes)"
vector 157 NetworkModified.host[7].wlan[0].mac.dcf datarateSelected:vector ETV
attr interpolationmode none
attr title "datarates selected, vector"
vector 158 NetworkModified.host[7].wlan[0].mac packetSentToUpper:vector(packetBytes) ETV
attr interpolationmode none
attr title "packets sent to upper layer, vector(packetBytes)"
vector 159 NetworkModified.host[7].wlan[0].mac packetReceivedFromUpper:vector(packetBytes) ETV
attr interpolationmode none
attr title "packets received from upper layer, vector(packetBytes)"
vector 160 NetworkModified.host[7].wlan[0].mac.dcf.channelAccess.pendingQueue packetPushed:vector(packetBytes) ETV
attr interpolationmode none
attr title "packet pushed, vector(packetBytes)"
vector 161 NetworkModified.host[7].wlan[0].mac.dcf.channelAccess.pendingQueue queueLength:vector ETV
attr interpolationmode sample-hold
attr source "count(packetPushed) - count(packetPopped) - count(packetRemoved) - count(packetDropped)"
attr title "queue length, vector"
vector 162 NetworkModified.host[7].wlan[0].mac.dcf.channelAccess.contention backoffPeriodGenerated:vector ETV
attr interpolationmode none
attr title "backoff periods, vector"
vector 163 NetworkModified.host[7].wlan[0].mac.dcf.channelAccess.contention backoffActive:vector ETV
attr interpolationmode sample-hold
attr source count(backoffStarted)-count(backoffStopped)
attr title "backoff active, vector"
vector 164 NetworkModified.host[8].wlan[0].mac packetReceivedFromLower:vector(packetBytes) ETV
attr interpolationmode none
attr title "packets received from lower layer, vector(packetBytes)"
vector 165 NetworkModified.host[8].wlan[0].mac.rx nav:vector ETV
attr interpolationmode linear
attr source navChanged
attr title "network allocation vector, vector"
vector 166 NetworkModified.host[8].wlan[0].mac.dcf packetDrop:vector(packetBytes) ETV
attr interpolationmode none
attr source packetDropped
attr title "packet drops, vector(packetBytes)"
vector 167 NetworkModified.host[8].wlan[0].mac.dcf packetDropNotAddressedToUs:vector(packetBytes) ETV
attr interpolationmode none
attr source packetDropReasonIsNotAddressedToUs(packetDropped)
attr title "packet drops: not addressed to us, vector(packetBytes)"
vector 168 NetworkModified.host[8].wlan[0].mac packetDrop:vector(packetBytes) ETV
attr interpolationmode none
attr source packetDropped
attr title "packet drops, vector(packetBytes)"
vector 169 NetworkModified.host[8].wlan[0].mac packetDropNotAddressedToUs:vector(packetBytes) ETV
attr interpolationmode none
attr source packetDropReasonIsNotAddressedToUs(packetDropped)
attr title "packet drops: not addressed to us, vector(packetBytes)"
vector 170 NetworkModified.host[7].wlan[0].mac packetSentToLower:vector(packetBytes) ETV
attr interpolationmode none
attr title "packets sent to lower layer, vector(packetBytes)"
vector 171 NetworkModified.host[7].wlan[0].radio transmissionState:vector ETV
attr interpolationmode sample-hold
attr source transmissionStateChanged
attr title "Radio transmission state, vector"
vector 172 NetworkModified.host[4].wlan[0].mac.dcf.channelAccess.pendingQueue packetPopped:vector(packetBytes) ETV
attr interpolationmode none
attr title "packet popped, vector(packetBytes)"
vector 173 NetworkModified.host[4].wlan[0].mac.dcf.channelAccess.pendingQueue queueingTime:vector ETV
attr interpolationmode none
attr source queueingTime(packetPopped)
attr title "queueing times, vector"
attr unit s
vector 174 NetworkModified.host[4].wlan[0].mac.dcf.channelAccess.inProgressFrames queueLength:vector ETV
attr interpolationmode sample-hold
attr source "count(packetEnqueued) - count(packetDequeued)"
attr title "queue length, vector"
vector 175 NetworkModified.host[4].wlan[0].mac.dcf frameSequenceActive:vector ETV
attr interpolationmode sample-hold
attr source count(frameSequenceStarted)-count(frameSequenceFinished)
attr title "frame sequence active, vector"
vector 176 NetworkModified.host[7].wlan[0].mac.dcf packetSentToPeer:vector(packetBytes) ETV
attr interpolationmode none
attr title "packets sent, vector(packetBytes)"
vector 177 NetworkModified.host[7].wlan[0].mac.dcf packetSentToPeerUnicast:vector(packetBytes) ETV
attr interpolationmode none
attr source ieee80211Unicast(packetSentToPeer)
attr title "packets sent: unicast, vector(packetBytes)"
vector 178 NetworkModified.host[7].wlan[0].mac.dcf packetSentToPeerWithoutRetry:vector(packetBytes) ETV
attr interpolationmode none
attr source ieee80211NotRetry(packetSentToPeer)
attr title "packets sent: without retry, vector(packetBytes)"
vector 179 NetworkModified.host[1].wlan[0].mac.dcf packetReceivedFromPeer:vector(packetBytes) ETV
attr interpolationmode none
attr title "packets received, vector(packetBytes)"
vector 180 NetworkModified.host[1].wlan[0].mac.dcf packetReceivedFromPeerUnicast:vector(packetBytes) ETV
attr interpolationmode none
attr source ieee80211Unicast(packetReceivedFromPeer)
attr title "packets received: unicast, vector(packetBytes)"
vector 181 NetworkModified.host[1].wlan[0].mac.dcf packetReceivedFromPeerWithoutRetry:vector(packetBytes) ETV
attr interpolationmode none
attr source ieee80211NotRetry(packetReceivedFromPeer)
attr title "packets received: without retry, vector(packetBytes)"
vector 182 NetworkModified.host[1].wlan[0].mac.dcf.channelAccess.inProgressFrames queueingTime:vector ETV
attr interpolationmode none
attr source queueingTime(packetDequeued)
attr title "queueing times, vector"
vector 183 NetworkModified.host[4].wlan[0].mac.rx nav:vector ETV
attr interpolationmode linear
attr source navChanged
attr title "network allocation vector, vector"
vector 184 NetworkModified.host[0].wlan[0].mac packetDrop:vector(packetBytes) ETV
attr interpolationmode none
attr source packetDropped
attr title "packet drops, vector(packetBytes)"
vector 185 NetworkModified.host[0].wlan[0].mac packetDropIncorrectlyReceived:vector(packetBytes) ETV
attr interpolationmode none
attr source packetDropReasonIsIncorrectlyReceived(packetDropped)
attr title "packet drops: incorrectly received, vector(packetBytes)"
vector 186 NetworkModified.host[5].wlan[0].mac.dcf packetReceivedFromPeer:vector(packetBytes) ETV
attr interpolationmode none
attr title "packets received, vector(packetBytes)"
vector 187 NetworkModified.host[5].wlan[0].mac.dcf packetReceivedFromPeerUnicast:vector(packetBytes) ETV
attr interpolationmode none
attr source ieee80211Unicast(packetReceivedFromPeer)
attr title "packets received: unicast, vector(packetBytes)"
vector 188 NetworkModified.host[5].wlan[0].mac.dcf packetReceivedFromPeerWithoutRetry:vector(packetBytes) ETV
attr interpolationmode none
attr source ieee80211NotRetry(packetReceivedFromPeer)
attr title "packets received: without retry, vector(packetBytes)"
vector 189 NetworkModified.host[5].wlan[0].mac.dcf datarateSelected:vector ETV
attr interpolationmode none
attr title "datarates selected, vector"
vector 190 NetworkModified.host[5].wlan[0].mac packetSentToUpper:vector(packetBytes) ETV
attr interpolationmode none
attr title "packets sent to upper layer, vector(packetBytes)"
vector 191 NetworkModified.host[5].wlan[0].mac packetReceivedFromUpper:vector(packetBytes) ETV
attr interpolationmode none
attr title "packets received from upper layer, vector(packetBytes)"
vector 192 NetworkModified.host[5].wlan[0].mac.dcf.channelAccess.pendingQueue packetPushed:vector(packetBytes) ETV
attr interpolationmode none
attr title "packet pushed, vector(packetBytes)"
vector 193 NetworkModified.host[5].wlan[0].mac.dcf.channelAccess.pendingQueue queueLength:vector ETV
attr interpolationmode sample-hold
attr source "count(packetPushed) - count(packetPopped) - count(packetRemoved) - count(packetDropped)"
attr title "queue length, vector"
vector 194 NetworkModified.host[5].wlan[0].mac.dcf.channelAccess.contention backoffPeriodGenerated:vector ETV
attr interpolationmode none
attr title "backoff periods, vector"
vector 195 NetworkModified.host[5].wlan[0].mac.dcf.channelAccess.contention backoffActive:vector ETV
attr interpolationmode sample-hold
attr source count(backoffStarted)-count(backoffStopped)
attr title "backoff active, vector"
vector 196 NetworkModified.host[6].wlan[0].mac.rx nav:vector ETV
attr interpolationmode linear
attr source navChanged
attr title "network allocation vector, vector"
vector 197 NetworkModified.host[5].wlan[0].mac packetSentToLower:vector(packetBytes) ETV
attr interpolationmode none
attr title "packets sent to lower layer, vector(packetBytes)"
vector 198 NetworkModified.host[5].wlan[0].radio transmissionState:vector ETV
attr interpolationmode sample-hold
attr source transmissionStateChanged
attr title "Radio transmission state, vector"
vector 199 NetworkModified.host[5].wlan[0].mac.dcf packetSentToPeer:vector(packetBytes) ETV
attr interpolationmode none
attr title "packets sent, vector(packetBytes)"
vector 200 NetworkModified.host[5].wlan[0].mac.dcf packetSentToPeerUnicast:vector(packetBytes) ETV
attr interpolationmode none
attr source ieee80211Unicast(packetSentToPeer)
attr title "packets sent: unicast, vector(packetBytes)"
vector 201 NetworkModified.host[5].wlan[0].mac.dcf packetSentToPeerWithoutRetry:vector(packetBytes) ETV
attr interpolationmode none
attr source ieee80211NotRetry(packetSentToPeer)
attr title "packets sent: without retry, vector(packetBytes)"
vector 202 NetworkModified.host[4].wlan[0].mac.dcf.channelAccess.inProgressFrames queueingTime:vector ETV
attr interpolationmode none
attr source queueingTime(packetDequeued)
attr title "queueing times, vector"
vector 203 NetworkModified.host[0].wlan[0].mac.dcf packetDrop:vector(packetBytes) ETV
attr interpolationmode none
attr source packetDropped
attr title "packet drops, vector(packetBytes)"
vector 204 NetworkModified.host[0].wlan[0].mac.dcf packetDropNotAddressedToUs:vector(packetBytes) ETV
attr interpolationmode none
attr source packetDropReasonIsNotAddressedToUs(packetDropped)
attr title "packet drops: not addressed to us, vector(packetBytes)"
vector 205 NetworkModified.host[0].wlan[0].mac packetDropNotAddressedToUs:vector(packetBytes) ETV
attr interpolationmode none
attr source packetDropReasonIsNotAddressedToUs(packetDropped)
attr title "packet drops: not addressed to us, vector(packetBytes)"
vector 206 NetworkModified.host[5].wlan[0].mac.dcf.channelAccess.pendingQueue packetPopped:vector(packetBytes) ETV
attr interpolationmode none
attr title "packet popped, vector(packetBytes)"
vector 207 NetworkModified.host[5].wlan[0].mac.dcf.channelAccess.pendingQueue queueingTime:vector ETV
attr interpolationmode none
attr source queueingTime(packetPopped)
attr title "queueing times, vector"
attr unit s
vector 208 NetworkModified.host[5].wlan[0].mac.dcf.channelAccess.inProgressFrames queueLength:vector ETV
attr interpolationmode sample-hold
attr source "count(packetEnqueued) - count(packetDequeued)"
attr title "queue length, vector"
vector 209 NetworkModified.host[5].wlan[0].mac.dcf frameSequenceActive:vector ETV
attr interpolationmode sample-hold
attr source count(frameSequenceStarted)-count(frameSequenceFinished)
attr title "frame sequence active, vector"
vector 210 NetworkModified.host[4].wlan[0].mac.dcf packetDrop:vector(packetBytes) ETV
attr interpolationmode none
attr source packetDropped
attr title "packet drops, vector(packetBytes)"
vector 211 NetworkModified.host[4].wlan[0].mac.dcf packetDropNotAddressedToUs:vector(packetBytes) ETV
attr interpolationmode none
attr source packetDropReasonIsNotAddressedToUs(packetDropped)
attr title "packet drops: not addressed to us, vector(packetBytes)"
vector 212 NetworkModified.host[4].wlan[0].mac packetDrop:vector(packetBytes) ETV
attr interpolationmode none
attr source packetDropped
attr title "packet drops, vector(packetBytes)"
vector 213 NetworkModified.host[4].wlan[0].mac packetDropNotAddressedToUs:vector(packetBytes) ETV
attr interpolationmode none
attr source packetDropReasonIsNotAddressedToUs(packetDropped)
attr title "packet drops: not addressed to us, vector(packetBytes)"
vector 214 NetworkModified.host[6].wlan[0].mac.dcf packetReceivedFromPeer:vector(packetBytes) ETV
attr interpolationmode none
attr title "packets received, vector(packetBytes)"
vector 215 NetworkModified.host[6].wlan[0].mac.dcf packetReceivedFromPeerUnicast:vector(packetBytes) ETV
attr interpolationmode none
attr source ieee80211Unicast(packetReceivedFromPeer)
attr title "packets received: unicast, vector(packetBytes)"
vector 216 NetworkModified.host[6].wlan[0].mac.dcf packetReceivedFromPeerWithoutRetry:vector(packetBytes) ETV
attr interpolationmode none
attr source ieee80211NotRetry(packetReceivedFromPeer)
attr title "packets received: without retry, vector(packetBytes)"
vector 217 NetworkModified.host[6].wlan[0].mac.dcf datarateSelected:vector ETV
attr interpolationmode none
attr title "datarates selected, vector"
vector 218 NetworkModified.host[6].wlan[0].mac packetSentToUpper:vector(packetBytes) ETV
attr interpolationmode none
attr title "packets sent to upper layer, vector(packetBytes)"
vector 219 NetworkModified.host[6].wlan[0].mac packetReceivedFromUpper:vector(packetBytes) ETV
attr interpolationmode none
attr title "packets received from upper layer, vector(packetBytes)"
vector 220 NetworkModified.host[6].wlan[0].mac.dcf.channelAccess.pendingQueue packetPushed:vector(packetBytes) ETV
attr interpolationmode none
attr title "packet pushed, vector(packetBytes)"
vector 221 NetworkModified.host[6].wlan[0].mac.dcf.channelAccess.pendingQueue queueLength:vector ETV
attr interpolationmode sample-hold
attr source "count(packetPushed) - count(packetPopped) - count(packetRemoved) - count(packetDropped)"
attr title "queue length, vector"
vector 222 NetworkModified.host[6].wlan[0].mac.dcf.channelAccess.contention backoffPeriodGenerated:vector ETV
attr interpolationmode none
attr title "backoff periods, vector"
vector 223 NetworkModified.host[6].wlan[0].mac.dcf.channelAccess.contention backoffActive:vector ETV
attr interpolationmode sample-hold
attr source count(backoffStarted)-count(backoffStopped)
attr title "backoff active, vector"
vector 224 NetworkModified.host[16].wlan[0].mac packetReceivedFromLower:vector(packetBytes) ETV
attr interpolationmode none
attr title "packets received from lower layer, vector(packetBytes)"
vector 225 NetworkModified.host[16].wlan[0].mac.rx nav:vector ETV
attr interpolationmode linear
attr source navChanged
attr title "network allocation vector, vector"
vector 226 NetworkModified.host[16].wlan[0].mac.dcf packetDrop:vector(packetBytes) ETV
attr interpolationmode none
attr source packetDropped
attr title "packet drops, vector(packetBytes)"
vector 227 NetworkModified.host[16].wlan[0].mac.dcf packetDropNotAddressedToUs:vector(packetBytes) ETV
attr interpolationmode none
attr source packetDropReasonIsNotAddressedToUs(packetDropped)
attr title "packet drops: not addressed to us, vector(packetBytes)"
vector 228 NetworkModified.host[16].wlan[0].mac packetDrop:vector(packetBytes) ETV
attr interpolationmode none
attr source packetDropped
attr title "packet drops, vector(packetBytes)"
vector 229 NetworkModified.host[16].wlan[0].mac packetDropNotAddressedToUs:vector(packetBytes) ETV
attr interpolationmode none
attr source packetDropReasonIsNotAddressedToUs(packetDropped)
attr title "packet drops: not addressed to us, vector(packetBytes)"
vector 230 NetworkModified.host[7].wlan[0].mac.rx nav:vector ETV
attr interpolationmode linear
attr source navChanged
attr title "network allocation vector, vector"
vector 231 NetworkModified.host[7].wlan[0].mac.dcf packetDrop:vector(packetBytes) ETV
attr interpolationmode none
attr source packetDropped
attr title "packet drops, vector(packetBytes)"
vector 232 NetworkModified.host[7].wlan[0].mac.dcf packetDropNotAddressedToUs:vector(packetBytes) ETV
attr interpolationmode none
attr source packetDropReasonIsNotAddressedToUs(packetDropped)
attr title "packet drops: not addressed to us, vector(packetBytes)"
vector 233 NetworkModified.host[7].wlan[0].mac packetDrop:vector(packetBytes) ETV
attr interpolationmode none
attr source packetDropped
attr title "packet drops, vector(packetBytes)"
vector 234 NetworkModified.host[7].wlan[0].mac packetDropNotAddressedToUs:vector(packetBytes) ETV
attr interpolationmode none
attr source packetDropReasonIsNotAddressedToUs(packetDropped)
attr title "packet drops: not addressed to us, vector(packetBytes)"
vector 235 NetworkModified.host[6].wlan[0].mac packetSentToLower:vector(packetBytes) ETV
attr interpolationmode none
attr title "packets sent to lower layer, vector(packetBytes)"
vector 236 NetworkModified.host[6].wlan[0].radio transmissionState:vector ETV
attr interpolationmode sample-hold
attr source transmissionStateChanged
attr title "Radio transmission state, vector"
vector 237 NetworkModified.host[6].wlan[0].mac.dcf packetSentToPeer:vector(packetBytes) ETV
attr interpolationmode none
attr title "packets sent, vector(packetBytes)"
vector 238 NetworkModified.host[6].wlan[0].mac.dcf packetSentToPeerUnicast:vector(packetBytes) ETV
attr interpolationmode none
attr source ieee80211Unicast(packetSentToPeer)
attr title "packets sent: unicast, vector(packetBytes)"
vector 239 NetworkModified.host[6].wlan[0].mac.dcf packetSentToPeerWithoutRetry:vector(packetBytes) ETV
attr interpolationmode none
attr source ieee80211NotRetry(packetSentToPeer)
attr title "packets sent: without retry, vector(packetBytes)"
vector 240 NetworkModified.host[5].wlan[0].mac.dcf.channelAccess.inProgressFrames queueingTime:vector ETV
attr interpolationmode none
attr source queueingTime(packetDequeued)
attr title "queueing times, vector"
vector 241 NetworkModified.host[6].wlan[0].mac.dcf.channelAccess.pendingQueue packetPopped:vector(packetBytes) ETV
attr interpolationmode none
attr title "packet popped, vector(packetBytes)"
vector 242 NetworkModified.host[6].wlan[0].mac.dcf.channelAccess.pendingQueue queueingTime:vector ETV
attr interpolationmode none
attr source queueingTime(packetPopped)
attr title "queueing times, vector"
attr unit s
vector 243 NetworkModified.host[6].wlan[0].mac.dcf.channelAccess.inProgressFrames queueLength:vector ETV
attr interpolationmode sample-hold
attr source "count(packetEnqueued) - count(packetDequeued)"
attr title "queue length, vector"
vector 244 NetworkModified.host[6].wlan[0].mac.dcf frameSequenceActive:vector ETV
attr interpolationmode sample-hold
attr source count(frameSequenceStarted)-count(frameSequenceFinished)
attr title "frame sequence active, vector"
vector 245 NetworkModified.host[16].wlan[0].mac.dcf packetReceivedFromPeer:vector(packetBytes) ETV
attr interpolationmode none
attr title "packets received, vector(packetBytes)"
vector 246 NetworkModified.host[16].wlan[0].mac.dcf packetReceivedFromPeerUnicast:vector(packetBytes) ETV
attr interpolationmode none
attr source ieee80211Unicast(packetReceivedFromPeer)
attr title "packets received: unicast, vector(packetBytes)"
vector 247 NetworkModified.host[16].wlan[0].mac.dcf packetReceivedFromPeerWithoutRetry:vector(packetBytes) ETV
attr interpolationmode none
attr source ieee80211NotRetry(packetReceivedFromPeer)
attr title "packets received: without retry, vector(packetBytes)"
vector 248 NetworkModified.host[16].wlan[0].mac.dcf datarateSelected:vector ETV
attr interpolationmode none
attr title "datarates selected, vector"
vector 249 NetworkModified.host[16].wlan[0].mac packetSentToUpper:vector(packetBytes) ETV
attr interpolationmode none
attr title "packets sent to upper layer, vector(packetBytes)"
vector 250 NetworkModified.host[16].udp packetReceived:vector(packetBytes) ETV
attr interpolationmode none
attr source packetReceived
attr title "packets received, vector(packetBytes)"
vector 251 NetworkModified.host[16].udp passedUpPk:vector(count) ETV
attr interpolationmode none
attr source packetSentToUpper
attr title "packets passed up, vector(count)"
vector 252 NetworkModified.host[16].app[0] packetReceived:vector(packetBytes) ETV
attr interpolationmode none
attr source packetReceived
attr title "packets received, vector(packetBytes)"
vector 253 NetworkModified.host[16].app[0] endToEndDelay:vector ETV
attr interpolationmode none
attr source dataAge(packetReceived)
attr title "end-to-end delay, vector"
attr unit s
vector 254 NetworkModified.host[16].app[0] rcvdPkSeqNo:vector ETV
attr interpolationmode none
attr source appPkSeqNo(packetReceived)
attr title "received packet sequence number, vector"
vector 255 NetworkModified.host[16].wlan[0].mac packetSentToLower:vector(packetBytes) ETV
attr interpolationmode none
attr title "packets sent to lower layer, vector(packetBytes)"
vector 256 NetworkModified.host[16].wlan[0].radio transmissionState:vector ETV
attr interpolationmode sample-hold
attr source transmissionStateChanged
attr title "Radio transmission state, vector"
vector 257 NetworkModified.host[16].wlan[0].mac.dcf packetSentToPeer:vector(packetBytes) ETV
attr interpolationmode none
attr title "packets sent, vector(packetBytes)"
vector 258 NetworkModified.host[16].wlan[0].mac.dcf packetSentToPeerUnicast:vector(packetBytes) ETV
attr interpolationmode none
attr source ieee80211Unicast(packetSentToPeer)
attr title "packets sent: unicast, vector(packetBytes)"
vector 259 NetworkModified.host[16].wlan[0].mac.dcf packetSentToPeerWithoutRetry:vector(packetBytes) ETV
attr interpolationmode none
attr source ieee80211NotRetry(packetSentToPeer)
attr title "packets sent: without retry, vector(packetBytes)"
vector 260 NetworkModified.host[6].wlan[0].mac.dcf.channelAccess.inProgressFrames queueingTime:vector ETV
attr interpolationmode none
attr source queueingTime(packetDequeued)
attr title "queueing times, vector"
vector 261 NetworkModified.host[7].wlan[0].mac.dcf.channelAccess.pendingQueue packetPopped:vector(packetBytes) ETV
attr interpolationmode none
attr title "packet popped, vector(packetBytes)"
vector 262 NetworkModified.host[7].wlan[0].mac.dcf.channelAccess.pendingQueue queueingTime:vector ETV
attr interpolationmode none
attr source queueingTime(packetPopped)
attr title "queueing times, vector"
attr unit s
vector 263 NetworkModified.host[7].wlan[0].mac.dcf.channelAccess.inProgressFrames queueLength:vector ETV
attr interpolationmode sample-hold
attr source "count(packetEnqueued) - count(packetDequeued)"
attr title "queue length, vector"
vector 264 NetworkModified.host[7].wlan[0].mac.dcf frameSequenceActive:vector ETV
attr interpolationmode sample-hold
attr source count(frameSequenceStarted)-count(frameSequenceFinished)
attr title "frame sequence active, vector"
vector 265 NetworkModified.host[8].wlan[0].mac.dcf packetReceivedFromPeer:vector(packetBytes) ETV
attr interpolationmode none
attr title "packets received, vector(packetBytes)"
vector 266 NetworkModified.host[8].wlan[0].mac.dcf packetReceivedFromPeerUnicast:vector(packetBytes) ETV
attr interpolationmode none
attr source ieee80211Unicast(packetReceivedFromPeer)
attr title "packets received: unicast, vector(packetBytes)"
vector 267 NetworkModified.host[8].wlan[0].mac.dcf packetReceivedFromPeerWithoutRetry:vector(packetBytes) ETV
attr interpolationmode none
attr source ieee80211NotRetry(packetReceivedFromPeer)
attr title "packets received: without retry, vector(packetBytes)"
vector 268 NetworkModified.host[8].wlan[0].mac.dcf datarateSelected:vector ETV
attr interpolationmode none
attr title "datarates selected, vector"
vector 269 NetworkModified.host[8].wlan[0].mac packetSentToUpper:vector(packetBytes) ETV
attr interpolationmode none
attr title "packets sent to upper layer, vector(packetBytes)"
vector 270 NetworkModified.host[8].wlan[0].mac packetReceivedFromUpper:vector(packetBytes) ETV
attr interpolationmode none
attr title "packets received from upper layer, vector(packetBytes)"
vector 271 NetworkModified.host[8].wlan[0].mac.dcf.channelAccess.pendingQueue packetPushed:vector(packetBytes) ETV
attr interpolationmode none
attr title "packet pushed, vector(packetBytes)"
vector 272 NetworkModified.host[8].wlan[0].mac.dcf.channelAccess.pendingQueue queueLength:vector ETV
attr interpolationmode sample-hold
attr source "count(packetPushed) - count(packetPopped) - count(packetRemoved) - count(packetDropped)"
attr title "queue length, vector"
vector 273 NetworkModified.host[8].wlan[0].mac.dcf.channelAccess.contention backoffPeriodGenerated:vector ETV
attr interpolationmode none
attr title "backoff periods, vector"
vector 274 NetworkModified.host[8].wlan[0].mac.dcf.channelAccess.contention backoffActive:vector ETV
attr interpolationmode sample-hold
attr source count(backoffStarted)-count(backoffStopped)
attr title "backoff active, vector"
vector 275 NetworkModified.host[9].wlan[0].mac packetReceivedFromLower:vector(packetBytes) ETV
attr interpolationmode none
attr title "packets received from lower layer, vector(packetBytes)"
vector 276 NetworkModified.host[9].wlan[0].mac.rx nav:vector ETV
attr interpolationmode linear
attr source navChanged
attr title "network allocation vector, vector"
vector 277 NetworkModified.host[9].wlan[0].mac.dcf packetDrop:vector(packetBytes) ETV
attr interpolationmode none
attr source packetDropped
attr title "packet drops, vector(packetBytes)"
vector 278 NetworkModified.host[9].wlan[0].mac.dcf packetDropNotAddressedToUs:vector(packetBytes) ETV
attr interpolationmode none
attr source packetDropReasonIsNotAddressedToUs(packetDropped)
attr title "packet drops: not addressed to us, vector(packetBytes)"
vector 279 NetworkModified.host[9].wlan[0].mac packetDrop:vector(packetBytes) ETV
attr interpolationmode none
attr source packetDropped
attr title "packet drops, vector(packetBytes)"
vector 280 NetworkModified.host[9].wlan[0].mac packetDropNotAddressedToUs:vector(packetBytes) ETV
attr interpolationmode none
attr source packetDropReasonIsNotAddressedToUs(packetDropped)
attr title "packet drops: not addressed to us, vector(packetBytes)"
vector 281 NetworkModified.host[17].wlan[0].mac packetReceivedFromLower:vector(packetBytes) ETV
attr interpolationmode none
attr title "packets received from lower layer, vector(packetBytes)"
vector 282 NetworkModified.host[17].wlan[0].mac.rx nav:vector ETV
attr interpolationmode linear
attr source navChanged
attr title "network allocation vector, vector"
vector 283 NetworkModified.host[17].wlan[0].mac.dcf packetDrop:vector(packetBytes) ETV
attr interpolationmode none
attr source packetDropped
attr title "packet drops, vector(packetBytes)"
vector 284 NetworkModified.host[17].wlan[0].mac.dcf packetDropNotAddressedToUs:vector(packetBytes) ETV
attr interpolationmode none
attr source packetDropReasonIsNotAddressedToUs(packetDropped)
attr title "packet drops: not addressed to us, vector(packetBytes)"
vector 285 NetworkModified.host[17].wlan[0].mac packetDrop:vector(packetBytes) ETV
attr interpolationmode none
attr source packetDropped
attr title "packet drops, vector(packetBytes)"
vector 286 NetworkModified.host[17].wlan[0].mac packetDropNotAddressedToUs:vector(packetBytes) ETV
attr interpolationmode none
attr source packetDropReasonIsNotAddressedToUs(packetDropped)
attr title "packet drops: not addressed to us, vector(packetBytes)"
vector 287 NetworkModified.host[12].wlan[0].mac packetReceivedFromLower:vector(packetBytes) ETV
attr interpolationmode none
attr title "packets received from lower layer, vector(packetBytes)"
vector 288 NetworkModified.host[12].wlan[0].mac.rx nav:vector ETV
attr interpolationmode linear
attr source navChanged
attr title "network allocation vector, vector"
vector 289 NetworkModified.host[12].wlan[0].mac.dcf packetDrop:vector(packetBytes) ETV
attr interpolationmode none
attr source packetDropped
attr title "packet drops, vector(packetBytes)"
vector 290 NetworkModified.host[12].wlan[0].mac.dcf packetDropNotAddressedToUs:vector(packetBytes) ETV
attr interpolationmode none
attr source packetDropReasonIsNotAddressedToUs(packetDropped)
attr title "packet drops: not addressed to us, vector(packetBytes)"
vector 291 NetworkModified.host[12].wlan[0].mac packetDrop:vector(packetBytes) ETV
attr interpolationmode none
attr source packetDropped
attr title "packet drops, vector(packetBytes)"
vector 292 NetworkModified.host[12].wlan[0].mac packetDropNotAddressedToUs:vector(packetBytes) ETV
attr interpolationmode none
attr source packetDropReasonIsNotAddressedToUs(packetDropped)
attr title "packet drops: not addressed to us, vector(packetBytes)"
vector 293 NetworkModified.host[8].wlan[0].mac packetSentToLower:vector(packetBytes) ETV
attr interpolationmode none
attr title "packets sent to lower layer, vector(packetBytes)"
vector 294 NetworkModified.host[8].wlan[0].radio transmissionState:vector ETV
attr interpolationmode sample-hold
attr source transmissionStateChanged
attr title "Radio transmission state, vector"
vector 295 NetworkModified.host[8].wlan[0].mac.dcf packetSentToPeer:vector(packetBytes) ETV
attr interpolationmode none
attr title "packets sent, vector(packetBytes)"
vector 296 NetworkModified.host[8].wlan[0].mac.dcf packetSentToPeerUnicast:vector(packetBytes) ETV
attr interpolationmode none
attr source ieee80211Unicast(packetSentToPeer)
attr title "packets sent: unicast, vector(packetBytes)"
vector 297 NetworkModified.host[8].wlan[0].mac.dcf packetSentToPeerWithoutRetry:vector(packetBytes) ETV
attr interpolationmode none
attr source ieee80211NotRetry(packetSentToPeer)
attr title "packets sent: without retry, vector(packetBytes)"
vector 298 NetworkModified.host[7].wlan[0].mac.dcf.channelAccess.inProgressFrames queueingTime:vector ETV
attr interpolationmode none
attr source queueingTime(packetDequeued)
attr title "queueing times, vector"
vector 299 NetworkModified.host[2].app[0] packetSent:vector(packetBytes) ETV
attr interpolationmode none
attr source packetSent
attr title "packets sent, vector(packetBytes)"
vector 300 NetworkModified.host[2].udp packetSent:vector(packetBytes) ETV
attr interpolationmode none
attr source packetSent
attr title "packets sent, vector(packetBytes)"
vector 301 NetworkModified.host[2].wlan[0].mac packetReceivedFromUpper:vector(packetBytes) ETV
attr interpolationmode none
attr title "packets received from upper layer, vector(packetBytes)"
vector 302 NetworkModified.host[2].wlan[0].mac.dcf.channelAccess.pendingQueue packetPushed:vector(packetBytes) ETV
attr interpolationmode none
attr title "packet pushed, vector(packetBytes)"
vector 303 NetworkModified.host[2].wlan[0].mac.dcf.channelAccess.pendingQueue queueLength:vector ETV
attr interpolationmode sample-hold
attr source "count(packetPushed) - count(packetPopped) - count(packetRemoved) - count(packetDropped)"
attr title "queue length, vector"
vector 304 NetworkModified.host[2].wlan[0].mac.dcf.channelAccess.contention backoffPeriodGenerated:vector ETV
attr interpolationmode none
attr title "backoff periods, vector"
vector 305 NetworkModified.host[2].wlan[0].mac.dcf.channelAccess.contention backoffActive:vector ETV
attr interpolationmode sample-hold
attr source count(backoffStarted)-count(backoffStopped)
attr title "backoff active, vector"
vector 306 NetworkModified.host[2].wlan[0].mac.dcf.channelAccess.pendingQueue packetPopped:vector(packetBytes) ETV
attr interpolationmode none
attr title "packet popped, vector(packetBytes)"
vector 307 NetworkModified.host[2].wlan[0].mac.dcf.channelAccess.pendingQueue queueingTime:vector ETV
attr interpolationmode none
attr source queueingTime(packetPopped)
attr title "queueing times, vector"
attr unit s
vector 308 NetworkModified.host[2].wlan[0].mac.dcf.channelAccess.inProgressFrames queueLength:vector ETV
attr interpolationmode sample-hold
attr source "count(packetEnqueued) - count(packetDequeued)"
attr title "queue length, vector"
vector 309 NetworkModified.host[2].wlan[0].mac.dcf datarateSelected:vector ETV
attr interpolationmode none
attr title "datarates selected, vector"
vector 310 NetworkModified.host[2].wlan[0].mac packetSentToLower:vector(packetBytes) ETV
attr interpolationmode none
attr title "packets sent to lower layer, vector(packetBytes)"
vector 311 NetworkModified.host[2].wlan[0].mac.dcf frameSequenceActive:vector ETV
attr interpolationmode sample-hold
attr source count(frameSequenceStarted)-count(frameSequenceFinished)
attr title "frame sequence active, vector"
vector 312 NetworkModified.host[2].wlan[0].radio transmissionState:vector ETV
attr interpolationmode sample-hold
attr source transmissionStateChanged
attr title "Radio transmission state, vector"
vector 313 NetworkModified.host[2].wlan[0].mac.dcf packetSentToPeer:vector(packetBytes) ETV
attr interpolationmode none
attr title "packets sent, vector(packetBytes)"
vector 314 NetworkModified.host[2].wlan[0].mac.dcf packetSentToPeerUnicast:vector(packetBytes) ETV
attr interpolationmode none
attr source ieee80211Unicast(packetSentToPeer)
attr title "packets sent: unicast, vector(packetBytes)"
vector 315 NetworkModified.host[2].wlan[0].mac.dcf packetSentToPeerWithoutRetry:vector(packetBytes) ETV
attr interpolationmode none
attr source ieee80211NotRetry(packetSentToPeer)
attr title "packets sent: without retry, vector(packetBytes)"
vector 316 NetworkModified.host[2].wlan[0].mac.rx nav:vector ETV
attr interpolationmode linear
attr source navChanged
attr title "network allocation vector, vector"
vector 317 NetworkModified.host[10].wlan[0].mac packetReceivedFromLower:vector(packetBytes) ETV
attr interpolationmode none
attr title "packets received from lower layer, vector(packetBytes)"
vector 318 NetworkModified.host[10].wlan[0].mac.dcf packetReceivedFromPeer:vector(packetBytes) ETV
attr interpolationmode none
attr title "packets received, vector(packetBytes)"
vector 319 NetworkModified.host[10].wlan[0].mac.dcf packetReceivedFromPeerUnicast:vector(packetBytes) ETV
attr interpolationmode none
attr source ieee80211Unicast(packetReceivedFromPeer)
attr title "packets received: unicast, vector(packetBytes)"
vector 320 NetworkModified.host[10].wlan[0].mac.dcf packetReceivedFromPeerWithoutRetry:vector(packetBytes) ETV
attr interpolationmode none
attr source ieee80211NotRetry(packetReceivedFromPeer)
attr title "packets received: without retry, vector(packetBytes)"
vector 321 NetworkModified.host[10].wlan[0].mac.dcf datarateSelected:vector ETV
attr interpolationmode none
attr title "datarates selected, vector"
vector 322 NetworkModified.host[10].wlan[0].mac packetSentToUpper:vector(packetBytes) ETV
attr interpolationmode none
attr title "packets sent to upper layer, vector(packetBytes)"
vector 323 NetworkModified.host[10].wlan[0].mac packetReceivedFromUpper:vector(packetBytes) ETV
attr interpolationmode none
attr title "packets received from upper layer, vector(packetBytes)"
vector 324 NetworkModified.host[10].wlan[0].mac.dcf.channelAccess.pendingQueue packetPushed:vector(packetBytes) ETV
attr interpolationmode none
attr title "packet pushed, vector(packetBytes)"
vector 325 NetworkModified.host[10].wlan[0].mac.dcf.channelAccess.pendingQueue queueLength:vector ETV
attr interpolationmode sample-hold
attr source "count(packetPushed) - count(packetPopped) - count(packetRemoved) - count(packetDropped)"
attr title "queue length, vector"
vector 326 NetworkModified.host[10].wlan[0].mac.dcf.channelAccess.contention backoffPeriodGenerated:vector ETV
attr interpolationmode none
attr title "backoff periods, vector"
vector 327 NetworkModified.host[10].wlan[0].mac.dcf.channelAccess.contention backoffActive:vector ETV
attr interpolationmode sample-hold
attr source count(backoffStarted)-count(backoffStopped)
attr title "backoff active, vector"
vector 328 NetworkModified.host[10].wlan[0].mac packetSentToLower:vector(packetBytes) ETV
attr interpolationmode none
attr title "packets sent to lower layer, vector(packetBytes)"
vector 329 NetworkModified.host[10].wlan[0].radio transmissionState:vector ETV
attr interpolationmode sample-hold
attr source transmissionStateChanged
attr title "Radio transmission state, vector"
vector 330 NetworkModified.host[10].wlan[0].mac.dcf packetSentToPeer:vector(packetBytes) ETV
attr interpolationmode none
attr title "packets sent, vector(packetBytes)"
vector 331 NetworkModified.host[10].wlan[0].mac.dcf packetSentToPeerUnicast:vector(packetBytes) ETV
attr interpolationmode none
attr source ieee80211Unicast(packetSentToPeer)
attr title "packets sent: unicast, vector(packetBytes)"
vector 332 NetworkModified.host[10].wlan[0].mac.dcf packetSentToPeerWithoutRetry:vector(packetBytes) ETV
attr interpolationmode none
attr source ieee80211NotRetry(packetSentToPeer)
attr title "packets sent: without retry, vector(packetBytes)"
vector 333 NetworkModified.host[2].wlan[0].mac packetReceivedFromLower:vector(packetBytes) ETV
attr interpolationmode none
attr title "packets received from lower layer, vector(packetBytes)"
vector 334 NetworkModified.host[2].wlan[0].mac.dcf packetReceivedFromPeer:vector(packetBytes) ETV
attr interpolationmode none
attr title "packets received, vector(packetBytes)"
vector 335 NetworkModified.host[2].wlan[0].mac.dcf packetReceivedFromPeerUnicast:vector(packetBytes) ETV
attr interpolationmode none
attr source ieee80211Unicast(packetReceivedFromPeer)
attr title "packets received: unicast, vector(packetBytes)"
vector 336 NetworkModified.host[2].wlan[0].mac.dcf packetReceivedFromPeerWithoutRetry:vector(packetBytes) ETV
attr interpolationmode none
attr source ieee80211NotRetry(packetReceivedFromPeer)
attr title "packets received: without retry, vector(packetBytes)"
vector 337 NetworkModified.host[2].wlan[0].mac.dcf.channelAccess.inProgressFrames queueingTime:vector ETV
attr interpolationmode none
attr source queueingTime(packetDequeued)
attr title "queueing times, vector"
vector 338 NetworkModified.host[11].wlan[0].mac packetReceivedFromLower:vector(packetBytes) ETV
attr interpolationmode none
attr title "packets received from lower layer, vector(packetBytes)"
vector 339 NetworkModified.host[11].wlan[0].mac.dcf packetDrop:vector(packetBytes) ETV
attr interpolationmode none
attr source packetDropped
attr title "packet drops, vector(packetBytes)"
vector 340 NetworkModified.host[11].wlan[0].mac.dcf packetDropNotAddressedToUs:vector(packetBytes) ETV
attr interpolationmode none
attr source packetDropReasonIsNotAddressedToUs(packetDropped)
attr title "packet drops: not addressed to us, vector(packetBytes)"
vector 341 NetworkModified.host[11].wlan[0].mac packetDrop:vector(packetBytes) ETV
attr interpolationmode none
attr source packetDropped
attr title "packet drops, vector(packetBytes)"
vector 342 NetworkModified.host[11].wlan[0].mac packetDropNotAddressedToUs:vector(packetBytes) ETV
attr interpolationmode none
attr source packetDropReasonIsNotAddressedToUs(packetDropped)
attr title "packet drops: not addressed to us, vector(packetBytes)"
vector 343 NetworkModified.host[8].wlan[0].mac.dcf.channelAccess.pendingQueue packetPopped:vector(packetBytes) ETV
attr interpolationmode none
attr title "packet popped, vector(packetBytes)"
vector 344 NetworkModified.host[8].wlan[0].mac.dcf.channelAccess.pendingQueue queueingTime:vector ETV
attr interpolationmode none
attr source queueingTime(packetPopped)
attr title "queueing times, vector"
attr unit s
vector 345 NetworkModified.host[8].wlan[0].mac.dcf.channelAccess.inProgressFrames queueLength:vector ETV
attr interpolationmode sample-hold
attr source "count(packetEnqueued) - count(packetDequeued)"
attr title "queue length, vector"
vector 346 NetworkModified.host[8].wlan[0].mac.dcf frameSequenceActive:vector ETV
attr interpolationmode sample-hold
attr source count(frameSequenceStarted)-count(frameSequenceFinished)
attr title "frame sequence active, vector"
vector 347 NetworkModified.host[18].wlan[0].mac packetReceivedFromLower:vector(packetBytes) ETV
attr interpolationmode none
attr title "packets received from lower layer, vector(packetBytes)"
vector 348 NetworkModified.host[18].wlan[0].mac.rx nav:vector ETV
attr interpolationmode linear
attr source navChanged
attr title "network allocation vector, vector"
vector 349 NetworkModified.host[18].wlan[0].mac.dcf packetDrop:vector(packetBytes) ETV
attr interpolationmode none
attr source packetDropped
attr title "packet drops, vector(packetBytes)"
vector 350 NetworkModified.host[18].wlan[0].mac.dcf packetDropNotAddressedToUs:vector(packetBytes) ETV
attr interpolationmode none
attr source packetDropReasonIsNotAddressedToUs(packetDropped)
attr title "packet drops: not addressed to us, vector(packetBytes)"
vector 351 NetworkModified.host[18].wlan[0].mac packetDrop:vector(packetBytes) ETV
attr interpolationmode none
attr source packetDropped
attr title "packet drops, vector(packetBytes)"
vector 352 NetworkModified.host[18].wlan[0].mac packetDropNotAddressedToUs:vector(packetBytes) ETV
attr interpolationmode none
attr source packetDropReasonIsNotAddressedToUs(packetDropped)
attr title "packet drops: not addressed to us, vector(packetBytes)"
vector 353 NetworkModified.host[10].wlan[0].mac.dcf.channelAccess.pendingQueue packetPopped:vector(packetBytes) ETV
attr interpolationmode none
attr title "packet popped, vector(packetBytes)"
vector 354 NetworkModified.host[10].wlan[0].mac.dcf.channelAccess.pendingQueue queueingTime:vector ETV
attr interpolationmode none
attr source queueingTime(packetPopped)
attr title "queueing times, vector"
attr unit s
vector 355 NetworkModified.host[10].wlan[0].mac.dcf.channelAccess.inProgressFrames queueLength:vector ETV
attr interpolationmode sample-hold
attr source "count(packetEnqueued) - count(packetDequeued)"
attr title "queue length, vector"
vector 356 NetworkModified.host[10].wlan[0].mac.dcf frameSequenceActive:vector ETV
attr interpolationmode sample-hold
attr source count(frameSequenceStarted)-count(frameSequenceFinished)
attr title "frame sequence active, vector"
vector 357 NetworkModified.host[10].wlan[0].mac.rx nav:vector ETV
attr interpolationmode linear
attr source navChanged
attr title "network allocation vector, vector"
vector 358 NetworkModified.host[2].wlan[0].mac.dcf packetDrop:vector(packetBytes) ETV
attr interpolationmode none
attr source packetDropped
attr title "packet drops, vector(packetBytes)"
vector 359 NetworkModified.host[2].wlan[0].mac.dcf packetDropNotAddressedToUs:vector(packetBytes) ETV
attr interpolationmode none
attr source packetDropReasonIsNotAddressedToUs(packetDropped)
attr title "packet drops: not addressed to us, vector(packetBytes)"
vector 360 NetworkModified.host[2].wlan[0].mac packetDrop:vector(packetBytes) ETV
attr interpolationmode none
attr source packetDropped
attr title "packet drops, vector(packetBytes)"
vector 361 NetworkModified.host[2].wlan[0].mac packetDropNotAddressedToUs:vector(packetBytes) ETV
attr interpolationmode none
attr source packetDropReasonIsNotAddressedToUs(packetDropped)
attr title "packet drops: not addressed to us, vector(packetBytes)"
vector 362 NetworkModified.host[11].wlan[0].mac.dcf packetReceivedFromPeer:vector(packetBytes) ETV
attr interpolationmode none
attr title "packets received, vector(packetBytes)"
vector 363 NetworkModified.host[11].wlan[0].mac.dcf packetReceivedFromPeerUnicast:vector(packetBytes) ETV
attr interpolationmode none
attr source ieee80211Unicast(packetReceivedFromPeer)
attr title "packets received: unicast, vector(packetBytes)"
vector 364 NetworkModified.host[11].wlan[0].mac.dcf packetReceivedFromPeerWithoutRetry:vector(packetBytes) ETV
attr interpolationmode none
attr source ieee80211NotRetry(packetReceivedFromPeer)
attr title "packets received: without retry, vector(packetBytes)"
vector 365 NetworkModified.host[11].wlan[0].mac.dcf datarateSelected:vector ETV
attr interpolationmode none
attr title "datarates selected, vector"
vector 366 NetworkModified.host[11].wlan[0].mac packetSentToUpper:vector(packetBytes) ETV
attr interpolationmode none
attr title "packets sent to upper layer, vector(packetBytes)"
vector 367 NetworkModified.host[11].wlan[0].mac packetReceivedFromUpper:vector(packetBytes) ETV
attr interpolationmode none
attr title "packets received from upper layer, vector(packetBytes)"
vector 368 NetworkModified.host[11].wlan[0].mac.dcf.channelAccess.pendingQueue packetPushed:vector(packetBytes) ETV
attr interpolationmode none
attr title "packet pushed, vector(packetBytes)"
vector 369 NetworkModified.host[11].wlan[0].mac.dcf.channelAccess.pendingQueue queueLength:vector ETV
attr interpolationmode sample-hold
attr source "count(packetPushed) - count(packetPopped) - count(packetRemoved) - count(packetDropped)"
attr title "queue length, vector"
vector 370 NetworkModified.host[11].wlan[0].mac.dcf.channelAccess.contention backoffPeriodGenerated:vector ETV
attr interpolationmode none
attr title "backoff periods, vector"
vector 371 NetworkModified.host[11].wlan[0].mac.dcf.channelAccess.contention backoffActive:vector ETV
attr interpolationmode sample-hold
attr source count(backoffStarted)-count(backoffStopped)
attr title "backoff active, vector"
[...]
434	310950 224 1041 8409 0.008524657441 0.070773324569 8 162 162 1296 209952
435	311174 224 1041 8409 0.008524657441 0.070773324569 8 162 162 1296 209952
436	311398 112 1041 7610 0.008524657441 0.068524657441 4 162 162 648 104976
437	311510 1176 1041 8454 0.008524657441 0.070817324569 42 0 4.4e-05 0.000616 2.7104e-08
438	312686 55 1087 2681 0.00873116278 0.027378779728 2 162 162 324 52488
439	312741 217 1092 7413 0.008731329562 0.067915663126 8 14 162 704 105760
440	312958 217 1092 7413 0.008731329562 0.067915663126 8 14 162 704 105760
441	313175 55 1092 2686 0.008731329562 0.02737894651 2 162 162 324 52488
442	313230 389 1092 7259 0.008731329562 0.067789329562 12 24000000 24000000 288000000 6.912e+15
443	313619 110 1092 6960 0.008731329562 0.067299329562 4 134 134 536 71824
444	313729 110 1096 6964 0.008731329562 0.067299329562 4 134 134 536 71824
445	313839 110 1096 6964 0.008731329562 0.067299329562 4 162 162 648 104976
446	313949 204 1096 7259 0.008731329562 0.067789329562 8 0 1 4 4
447	314153 208 1096 6964 0.008731329562 0.067299329562 8 1 89 250 13788
448	314361 865 1096 7258 0.008731329562 0.067789329562 34 0 1 17 17
449	315226 325 1115 7259 0.008741329562 0.067789329562 12 14 162 1352 210736
450	315551 1220 1116 7360 0.008741329562 0.067871329562 48 0 2 48 72
451	316771 325 1139 7359 0.008775329562 0.067871329562 12 14 162 1352 210736
452	317096 325 1139 7359 0.008775329562 0.067871329562 12 14 162 1352 210736
453	317421 216 1139 7359 0.008775329562 0.067871329562 8 14 162 704 105760
454	317637 156 1143 7011 0.008775496344 0.067343496344 4 0.000126333564 0.001262333564 0.002077334256 1.9416254027878e-06
455	317793 112 1165 7809 0.008940393996 0.069128519108 4 162 162 648 104976
456	317905 138 1165 7809 0.008940393996 0.069128519108 4 0.000134 0.000694 0.002032333564 1.2249350593449e-06
457	318043 208 1165 8555 0.008940393996 0.071233853364 8 0 2 6 8
458	318251 362 1165 8555 0.008940393996 0.071233853364 14 0 1 7 7
459	318613 167 1192 8507 0.009022560778 0.071189686582 6 162 162 972 157464
460	318780 167 1192 8507 0.009022560778 0.071189686582 6 162 162 972 157464
461	318947 83 1192 8032 0.009022560778 0.069687019454 3 162 162 486 78732
462	319030 197 1192 8507 0.009022560778 0.071189686582 6 24000000 24000000 144000000 3.456e+15
463	319227 111 1192 8032 0.009022560778 0.069687019454 4 134 134 536 71824
464	319338 111 1195 8035 0.009022560778 0.069687019454 4 108 108 432 46656
465	319449 103 1195 8035 0.009022560778 0.069687019454 4 1 4 10 30
466	319552 111 1196 8036 0.009022560778 0.069687019454 4 100 100 400 40000
467	319663 154 1196 8036 0.009022560778 0.069687019454 4 0.001870667128 0.02205879224 0.030069446391 0.00050951159784162
468	319817 103 1196 8036 0.009022560778 0.069687019454 4 0 3 6 14
469	319920 161 1216 8527 0.009032560778 0.071199686582 6 14 14 84 1176
470	320081 620 1217 8552 0.009032560778 0.071233686582 24 0 2 24 36
471	320701 161 1240 8551 0.009066560778 0.071233686582 6 14 14 84 1176
472	320862 161 1240 8551 0.009066560778 0.071233686582 6 14 14 84 1176
473	321023 161 1240 8551 0.009066560778 0.071233686582 6 14 14 84 1176
474	321184 110 1265 7259 0.009385329562 0.067789329562 4 162 162 648 104976
475	321294 129 1265 7259 0.009385329562 0.067789329562 4 0.000274 0.000654 0.001832 9.14288e-07
476	321423 205 1265 7413 0.009385329562 0.067915663126 8 0 1 4 4
477	321628 406 1265 7413 0.009385329562 0.067915663126 16 0 1 8 8
478	322034 224 1292 7364 0.009467496344 0.067871496344 8 162 162 1296 209952
479	322258 224 1292 7364 0.009467496344 0.067871496344 8 162 162 1296 209952
480	322482 112 1292 7364 0.009467496344 0.067871496344 4 162 162 648 104976
481	322594 264 1292 7364 0.009467496344 0.067871496344 8 24000000 24000000 192000000 4.608e+15
482	322858 112 1292 7364 0.009467496344 0.067871496344 4 134 134 536 71824
483	322970 112 1295 7367 0.009467496344 0.067871496344 4 108 108 432 46656
484	323082 104 1295 7367 0.009467496344 0.067871496344 4 1 4 10 30
485	323186 112 1296 7368 0.009467496344 0.067871496344 4 100 100 400 40000
486	323298 154 1296 7368 0.009467496344 0.067871496344 4 0.001410667128 0.00353905018 0.008839434616 2.2079814831812e-05
487	323452 104 1296 7368 0.009467496344 0.067871496344 4 0 3 6 14
488	323556 216 1315 7387 0.009477496344 0.067881496344 8 14 14 112 1568
489	323772 832 1316 7411 0.009477496344 0.067915496344 32 0 2 32 48
490	324604 216 1339 7410 0.009511496344 0.067915496344 8 14 14 112 1568
491	324820 216 1339 7410 0.009511496344 0.067915496344 8 14 14 112 1568
492	325036 216 1339 7410 0.009511496344 0.067915496344 8 14 14 112 1568
493	325252 162 1342 7413 0.009511663126 0.067915663126 6 14 162 380 53272
494	325414 154 1342 7413 0.009511663126 0.067915663126 4 0.000126333564 0.003125446284 0.005230449182 1.3231482617777e-05
495	325568 112 1388 8409 0.009620657441 0.070773324569 4 162 162 648 104976
496	325680 248 1391 8412 0.009620824223 0.070773491351 9 14 162 866 132004
497	325928 248 1391 8412 0.009620824223 0.070773491351 9 14 162 866 132004
498	326176 112 1391 8412 0.009620824223 0.070773491351 4 162 162 648 104976
499	326288 363 1391 8412 0.009620824223 0.070773491351 11 24000000 24000000 264000000 6.336e+15
500	326651 112 1391 7834 0.009620824223 0.069180824223 4 134 134 536 71824
501	326763 112 1395 7838 0.009620824223 0.069180824223 4 134 134 536 71824
502	326875 112 1395 7838 0.009620824223 0.069180824223 4 162 162 648 104976
503	326987 208 1395 8005 0.009620824223 0.069674824223 8 0 1 4 4
504	327195 161 1395 7838 0.009620824223 0.069180824223 6 4 44 144 4382
505	327356 624 1395 8004 0.009620824223 0.069674824223 24 0 1 12 12
506	327980 303 1414 8432 0.009630824223 0.070783491351 11 14 162 1042 158444
507	328283 1144 1415 8456 0.009630824223 0.070817491351 44 0 2 44 66
508	329427 303 1437 8455 0.009664824223 0.070817491351 11 14 162 1042 158444
509	329730 303 1437 8455 0.009664824223 0.070817491351 11 14 162 1042 158444
510	330033 247 1437 8455 0.009664824223 0.070817491351 9 14 162 718 105956
511	330280 411 1441 8459 0.009664991005 0.070817658133 15 14 162 1098 159228
512	330691 108 1441 8459 0.009664991005 0.070817658133 4 14 14 56 784
513	330799 108 1441 8459 0.009664991005 0.070817658133 4 14 14 56 784
514	330907 108 1441 8459 0.009664991005 0.070817658133 4 14 14 56 784
515	331015 156 1441 8459 0.009664991005 0.070817658133 4 0.000126333564 0.002375000692 0.005186001384 9.2891072504753e-06
516	331171 688 1442 8981 0.009664991005 0.086011500986 25 14 162 2274 343524
517	331859 385 1442 8981 0.009664991005 0.086011500986 14 14 162 1232 185080
518	332244 385 1442 8981 0.009664991005 0.086011500986 14 14 162 1232 185080
519	332629 468 1442 8981 0.009664991005 0.086011500986 17 14 162 1570 237764
520	333097 385 1442 8981 0.009664991005 0.086011500986 14 14 162 1232 185080
521	333482 82 1484 8502 0.010024023755 0.0711895198 3 162 162 486 78732
522	333564 84 1489 8507 0.010024190537 0.071189686582 3 162 162 486 78732
523	333648 56 1489 8507 0.010024190537 0.071189686582 2 162 162 324 52488
524	333704 56 1489 8507 0.010024190537 0.071189686582 2 162 162 324 52488
525	333760 156 1537 8555 0.010068357319 0.071233853364 4 0.000126333564 0.002105334256 0.004081964707 6.2424595345942e-06
526	333916 112 1560 8005 0.010314824223 0.069674824223 4 162 162 648 104976
527	334028 138 1560 8005 0.010314824223 0.069674824223 4 0.000174 0.000694 0.001973000692 1.1292698456245e-06
528	334166 208 1560 8161 0.010314824223 0.069801157787 8 0 1 4 4
529	334374 312 1560 8161 0.010314824223 0.069801157787 12 0 1 6 6
530	334686 303 1586 8165 0.010396991005 0.069801324569 11 14 162 1042 158444
531	334989 303 1586 8165 0.010396991005 0.069801324569 11 14 162 1042 158444
532	335292 303 1586 8165 0.010396991005 0.069801324569 11 14 162 1042 158444
533	335595 303 1586 8165 0.010396991005 0.069801324569 11 14 162 1042 158444
534	335898 56 1632 5669 0.011152824223 0.049836824223 2 162 162 324 52488
535	335954 220 1637 8655 0.011152991005 0.071473991697 8 14 162 704 105760
536	336174 220 1637 8655 0.011152991005 0.071473991697 8 14 162 704 105760
537	336394 56 1637 5674 0.011152991005 0.049836991005 2 162 162 324 52488
538	336450 363 1637 8577 0.011152991005 0.071347658133 11 24000000 24000000 264000000 6.336e+15
539	336813 112 1637 8110 0.011152991005 0.069756991005 4 134 134 536 71824
540	336925 112 1641 8114 0.011152991005 0.069756991005 4 134 134 536 71824
541	337037 112 1641 8114 0.011152991005 0.069756991005 4 162 162 648 104976
542	337149 208 1641 8206 0.011152991005 0.070390991005 8 0 1 4 4
543	337357 187 1641 8286 0.011152991005 0.070527991005 7 6 27 109 2149
544	337544 728 1641 8576 0.011152991005 0.071347658133 28 0 1 14 14
545	338272 304 1662 8577 0.011162991005 0.071347658133 11 14 162 1190 184492
546	338576 1144 1663 8600 0.011162991005 0.071429658133 44 0 2 44 66
547	339720 304 1686 8599 0.011196991005 0.071429658133 11 14 162 1190 184492
548	340024 304 1686 8599 0.011196991005 0.071429658133 11 14 162 1190 184492
549	340328 220 1686 8260 0.011196991005 0.070472991005 8 14 162 704 105760
550	340548 136 1691 8161 0.011197157787 0.069801157787 5 14 162 218 27028
551	340684 156 1691 8161 0.011197157787 0.069801157787 4 0.000126333564 0.001182333564 0.002317334256 2.2083455135078e-06
552	340840 112 1714 8206 0.011386991005 0.070390991005 4 162 162 648 104976
553	340952 132 1714 8206 0.011386991005 0.070390991005 4 0.000234 0.000634 0.001676 7.84944e-07
554	341084 208 1714 8655 0.011386991005 0.071473991697 8 0 1 4 4
555	341292 364 1714 8655 0.011386991005 0.071473991697 14 0 1 7 7
556	341656 1176 1736 9029 0.011468991005 0.086055500986 42 0 4.4e-05 0.000616 2.7104e-08
557	342832 84 1784 8599 0.011864991005 0.071429658133 3 162 162 486 78732
558	342916 248 1789 8756 0.011865157787 0.071890158479 9 14 162 866 132004
559	343164 248 1789 8756 0.011865157787 0.071890158479 9 14 162 866 132004
560	343412 84 1789 8603 0.011865157787 0.071429824915 3 162 162 486 78732
561	343496 297 1789 8677 0.011865157787 0.071763824915 9 24000000 24000000 216000000 5.184e+15
562	343793 112 1789 8603 0.011865157787 0.071429824915 4 134 134 536 71824
563	343905 112 1793 8607 0.011865157787 0.071429824915 4 134 134 536 71824
564	344017 112 1793 8607 0.011865157787 0.071429824915 4 162 162 648 104976
565	344129 208 1793 8677 0.011865157787 0.071763824915 8 0 1 4 4
566	344337 107 1793 8607 0.011865157787 0.071429824915 4 6 29 62 1246
567	344444 520 1793 8676 0.011865157787 0.071763824915 20 0 1 10 10
568	344964 252 1796 8652 0.011865324569 0.071473991697 9 0 4.4e-05 0.000132 5.808e-09
569	345216 247 1812 8677 0.011875157787 0.071763824915 9 14 162 718 105956
570	345463 936 1813 8700 0.011875157787 0.071845824915 36 0 2 36 54
571	346399 247 1836 8699 0.011909157787 0.071845824915 9 14 162 718 105956
572	346646 247 1836 8699 0.011909157787 0.071845824915 9 14 162 718 105956
573	346893 247 1836 8699 0.011909157787 0.071845824915 9 14 162 718 105956
574	347140 164 1841 8655 0.011909324569 0.071473991697 6 14 162 380 53272
575	347304 156 1841 8655 0.011909324569 0.071473991697 4 0.000126333564 0.001083000692 0.002154001384 1.6400486596273e-06
576	347460 112 1862 8677 0.012079157787 0.071763824915 4 162 162 648 104976
577	347572 131 1862 8677 0.012079157787 0.071763824915 4 0.000214 0.00085 0.001792 1.035088e-06
578	347703 208 1862 8756 0.012079157787 0.071890158479 8 0 1 4 4
579	347911 208 1862 8756 0.012079157787 0.071890158479 8 0 1 4 4
580	348119 112 1889 8704 0.012161324569 0.071845991697 4 162 162 648 104976
581	348231 112 1889 8704 0.012161324569 0.071845991697 4 162 162 648 104976
582	348343 112 1889 8704 0.012161324569 0.071845991697 4 162 162 648 104976
583	348455 132 1889 8704 0.012161324569 0.071845991697 4 24000000 24000000 96000000 2.304e+15
584	348587 112 1889 8704 0.012161324569 0.071845991697 4 134 134 536 71824
585	348699 112 1892 8707 0.012161324569 0.071845991697 4 108 108 432 46656
586	348811 104 1892 8707 0.012161324569 0.071845991697 4 1 4 10 30
587	348915 112 1893 8708 0.012161324569 0.071845991697 4 100 100 400 40000
588	349027 155 1893 8708 0.012161324569 0.071845991697 4 0.002782667128 0.003718667128 0.013008336332 4.2787159549086e-05
589	349182 104 1893 8708 0.012161324569 0.071845991697 4 0 3 6 14
590	349286 108 1911 8728 0.012171324569 0.071855991697 4 14 14 56 784
591	349394 416 1912 8753 0.012171324569 0.071889991697 16 0 2 16 24
592	349810 108 1935 8752 0.012205324569 0.071889991697 4 14 14 56 784
593	349918 108 1935 8752 0.012205324569 0.071889991697 4 14 14 56 784
594	350026 108 1935 8752 0.012205324569 0.071889991697 4 14 14 56 784
595	350134 164 1938 8756 0.012205491351 0.071890158479 6 14 162 380 53272
596	350298 156 1938 8756 0.012205491351 0.071890158479 4 0.000126333564 0.000126333564 0.000505334256 6.3840677571768e-08
597	350454 56 2485 3658 0.026982995998 0.030161088433 2 162 162 324 52488
598	350510 109 2981 5857 0.02807094651 0.05033805923 4 162 162 648 104976
599	350619 112 2986 5866 0.028071113292 0.050338226012 4 162 162 648 104976
600	350731 112 2986 5866 0.028071113292 0.050338226012 4 162 162 648 104976
601	350843 112 2986 5866 0.028071113292 0.050338226012 4 162 162 648 104976
602	350955 111 3160 8038 0.028456254523 0.069687186236 4 14 162 500 78928
603	351066 112 3184 7613 0.028524824223 0.068524824223 4 162 162 648 104976
604	351178 84 3228 4218 0.028728254523 0.033828921651 3 162 162 486 78732
605	351262 56 3233 4223 0.028728421305 0.033829088433 2 162 162 324 52488
606	351318 56 3233 4223 0.028728421305 0.033829088433 2 162 162 324 52488
607	351374 56 3233 4223 0.028728421305 0.033829088433 2 162 162 324 52488
608	351430 83 3653 5987 0.030160754869 0.050577685198 3 14 162 338 52684
609	351513 28 3678 3678 0.030217491351 0.030217491351 1 162 162 162 26244
610	351541 110 3684 7344 0.030217824915 0.067870352326 4 14 162 352 52880
611	351651 55 3689 7293 0.03021785198 0.067826185544 2 162 162 324 52488
612	351706 83 4050 7615 0.031546325261 0.068524991005 3 14 162 338 52684
613	351789 84 4074 8310 0.031552754869 0.070619353018 3 162 162 486 78732
614	351873 54 4079 8315 0.031552921651 0.0706195198 2 162 162 324 52488
615	351927 54 4079 8315 0.031552921651 0.0706195198 2 162 162 324 52488
616	351981 54 4079 8315 0.031552921651 0.0706195198 2 162 162 324 52488
617	352035 56 4497 4990 0.045946635369 0.047339446856 2 162 162 324 52488
618	352091 112 4502 7898 0.045946829216 0.069211046519 4 162 162 648 104976
619	352203 56 4897 6548 0.047259547851 0.066602301805 2 162 162 324 52488
620	352259 56 4902 6553 0.047259714633 0.066602468587 2 162 162 324 52488
621	352315 84 4910 7370 0.047260048197 0.067871663126 3 162 162 486 78732
622	352399 138 5075 6854 0.04748989365 0.067173351634 5 162 162 810 131220
623	352537 28 6011 6011 0.050589157787 0.050589157787 1 162 162 162 26244
624	352565 28 6011 6011 0.050589157787 0.050589157787 1 162 162 162 26244
625	352593 56 6014 8268 0.050589324569 0.070473324569 2 162 162 324 52488
626	352649 28 6553 6553 0.066602468587 0.066602468587 1 162 162 162 26244
627	352677 28 6553 6553 0.066602468587 0.066602468587 1 162 162 162 26244
628	352705 28 6857 6857 0.067173518416 0.067173518416 1 162 162 162 26244
629	352733 28 7899 7899 0.069211046519 0.069211046519 1 162 162 162 26244
630	352761 26 8233 8233 0.0704035198 0.0704035198 1 162 162 162 26244
631	352787 28 8265 8265 0.070473157787 0.070473157787 1 162 162 162 26244
632	352815 28 8412 8412 0.070773491351 0.070773491351 1 162 162 162 26244
633	352843 28 8412 8412 0.070773491351 0.070773491351 1 162 162 162 26244
vector 634 NetworkModified.host[0].app[0] throughput:vector ETV
attr source throughput(packetReceived)
attr title "throughput, vector"
attr unit bps
vector 635 NetworkModified.host[1].app[0] throughput:vector ETV
attr source throughput(packetReceived)
attr title "throughput, vector"
attr unit bps
vector 636 NetworkModified.host[2].app[0] throughput:vector ETV
attr source throughput(packetReceived)
attr title "throughput, vector"
attr unit bps
vector 637 NetworkModified.host[3].app[0] throughput:vector ETV
attr source throughput(packetReceived)
attr title "throughput, vector"
attr unit bps
vector 638 NetworkModified.host[4].app[0] throughput:vector ETV
attr source throughput(packetReceived)
attr title "throughput, vector"
attr unit bps
vector 639 NetworkModified.host[5].app[0] throughput:vector ETV
attr source throughput(packetReceived)
attr title "throughput, vector"
attr unit bps
vector 640 NetworkModified.host[6].app[0] throughput:vector ETV
attr source throughput(packetReceived)
attr title "throughput, vector"
attr unit bps
vector 641 NetworkModified.host[7].app[0] throughput:vector ETV
attr source throughput(packetReceived)
attr title "throughput, vector"
attr unit bps
vector 642 NetworkModified.host[8].app[0] throughput:vector ETV
attr source throughput(packetReceived)
attr title "throughput, vector"
attr unit bps
vector 643 NetworkModified.host[9].app[0] throughput:vector ETV
attr source throughput(packetReceived)
attr title "throughput, vector"
attr unit bps
vector 644 NetworkModified.host[10].app[0] throughput:vector ETV
attr source throughput(packetReceived)
attr title "throughput, vector"
attr unit bps
vector 645 NetworkModified.host[11].app[0] throughput:vector ETV
attr source throughput(packetReceived)
attr title "throughput, vector"
attr unit bps
vector 646 NetworkModified.host[12].app[0] throughput:vector ETV
attr source throughput(packetReceived)
attr title "throughput, vector"
attr unit bps
vector 647 NetworkModified.host[13].app[0] throughput:vector ETV
attr source throughput(packetReceived)
attr title "throughput, vector"
attr unit bps
vector 648 NetworkModified.host[14].app[0] throughput:vector ETV
attr source throughput(packetReceived)
attr title "throughput, vector"
attr unit bps
vector 649 NetworkModified.host[15].app[0] throughput:vector ETV
attr source throughput(packetReceived)
attr title "throughput, vector"
attr unit bps
vector 650 NetworkModified.host[16].app[0] throughput:vector ETV
attr source throughput(packetReceived)
attr title "throughput, vector"
attr unit bps
vector 651 NetworkModified.host[17].app[0] throughput:vector ETV
attr source throughput(packetReceived)
attr title "throughput, vector"
attr unit bps
vector 652 NetworkModified.host[18].app[0] throughput:vector ETV
attr source throughput(packetReceived)
attr title "throughput, vector"
attr unit bps
vector 653 NetworkModified.host[19].app[0] throughput:vector ETV
attr source throughput(packetReceived)
attr title "throughput, vector"
attr unit bps
634	355861 26 9059 9059 0.086146447703 0.086146447703 1 0 0 0 0
635	355887 26 9059 9059 0.086146447703 0.086146447703 1 0 0 0 0
636	355913 26 9059 9059 0.086146447703 0.086146447703 1 0 0 0 0
637	355939 26 9059 9059 0.086146447703 0.086146447703 1 0 0 0 0
638	355965 26 9059 9059 0.086146447703 0.086146447703 1 0 0 0 0
639	355991 26 9059 9059 0.086146447703 0.086146447703 1 0 0 0 0
640	356017 26 9059 9059 0.086146447703 0.086146447703 1 0 0 0 0
641	356043 26 9059 9059 0.086146447703 0.086146447703 1 0 0 0 0
642	356069 26 9059 9059 0.086146447703 0.086146447703 1 0 0 0 0
643	356095 26 9059 9059 0.086146447703 0.086146447703 1 0 0 0 0
644	356121 26 9059 9059 0.086146447703 0.086146447703 1 0 0 0 0
645	356147 26 9059 9059 0.086146447703 0.086146447703 1 0 0 0 0
646	356173 26 9059 9059 0.086146447703 0.086146447703 1 0 0 0 0
647	356199 26 9059 9059 0.086146447703 0.086146447703 1 0 0 0 0
648	356225 26 9059 9059 0.086146447703 0.086146447703 1 0 0 0 0
649	356251 26 9059 9059 0.086146447703 0.086146447703 1 0 0 0 0
650	356277 40 9059 9059 0.086146447703 0.086146447703 1 37146.047055038 37146.047055038 37146.047055038 1379828811.8151
651	356317 40 9059 9059 0.086146447703 0.086146447703 1 37146.047055038 37146.047055038 37146.047055038 1379828811.8151
652	356357 40 9059 9059 0.086146447703 0.086146447703 1 37146.047055038 37146.047055038 37146.047055038 1379828811.8151
653	356397 40 9059 9059 0.086146447703 0.086146447703 1 37146.047055038 37146.047055038 37146.047055038 1379828811.8151

