file 409903 1590499988                                          
version 2
run StaticSecond-0-20200526-15:21:24-6090
attr configname StaticSecond
attr datetime 20200526-15:21:24
attr experiment StaticSecond
attr inifile omnetpp.ini
attr iterationvars ""
attr iterationvarsf ""
attr measurement ""
attr network NetworkModified
attr processid 6090
attr repetition 0
attr replication #0
attr resultdir results
attr runnumber 0
attr seedset 0
param **.host[*].mobility.typename "\"StationaryMobility\""
param **.host[*].mobility.initFromDisplayString false
param **.host[0].mobility.initialX 100m
param **.host[0].mobility.initialY 100m
param **.host[1].mobility.initialX 100m
param **.host[1].mobility.initialY 150m
param **.host[2].mobility.initialX 400m
param **.host[2].mobility.initialY 100m
param **.host[3].mobility.initialX 400m
param **.host[3].mobility.initialY 150m
param **.host[4].mobility.initialX 110m
param **.host[4].mobility.initialY 100m
param **.host[5].mobility.initialX 110m
param **.host[5].mobility.initialY 110m
param **.host[6].mobility.initialX 110m
param **.host[6].mobility.initialY 120m
param **.host[7].mobility.initialX 110m
param **.host[7].mobility.initialY 150m
param **.host[8].mobility.initialX 110m
param **.host[8].mobility.initialY 140m
param **.host[9].mobility.initialX 110m
param **.host[9].mobility.initialY 130m
param **.host[10].mobility.initialX 410m
param **.host[10].mobility.initialY 100m
param **.host[11].mobility.initialX 410m
param **.host[11].mobility.initialY 110m
param **.host[12].mobility.initialX 410m
param **.host[12].mobility.initialY 120m
param **.host[13].mobility.initialX 410m
param **.host[13].mobility.initialY 150m
param **.host[14].mobility.initialX 410m
param **.host[14].mobility.initialY 140m
param **.host[15].mobility.initialX 410m
param **.host[15].mobility.initialY 130m
param **.host[16].mobility.initialX 120m
param **.host[16].mobility.initialY 120m
param **.host[17].mobility.initialX 120m
param **.host[17].mobility.initialY 130m
param **.host[18].mobility.initialX 420m
param **.host[18].mobility.initialY 120m
param **.host[19].mobility.initialX 420m
param **.host[19].mobility.initialY 130m
param **.number 20
param **.networkConfiguratorModule "\"networkConfigurator\""
param **.networkConfigurator.config "xmldoc(\"lessnodes.xml\")"
param **.host[*].hasIpv4 false
param **.host[*].hasIpv6 false
param **.host[*].hasGn true
param **.host[*].generic.typename "\"NextHopNetworkLayer\""
param **.host[*].generic.nextHop.hopLimit 4
param **.numApps 1
param **.radioMedium.pathLoss.typename "\"LogNormalShadowing\""
param **.radioMedium.pathLoss.alpha 4.03
param **.radioMedium.pathLoss.sigma 4.98
param **.networkConfigurator.typename "\"NextHopNetworkConfigurator\""
param *.host[*].wlan[2].radio.displayCommunicationRange true
param *.visualizer.sceneVisualizer.descriptionFigure "\"title\""
param *.visualizer.mediumVisualizer.displaySignals true
param *.visualizer.physicalLinkVisualizer.displayLinks true
param *.host[*].wlan[0].radio.transmitter.communicationRange 200m
param *.host[*].wlan[0].radio.displayCommunicationRange true
param **.host[4..19].app[0].typename "\"UdpSink\""
param **.host[4..19].app[0].localPort 7654
param **.host[0..3].app[0].typename "\"UdpBasicApp\""
param **.host[0..3].app[0].destPort 7654
param **.host[0].app[0].destAddresses "\"host[16]\""
param **.host[1].app[0].destAddresses "\"host[17]\""
param **.host[2].app[0].destAddresses "\"host[18]\""
param **.host[3].app[0].destAddresses "\"host[19]\""
param **.host[0..3].app[0].messageLength 100B
param **.host[0..3].app[0].startTime "uniform(0s, 10ms)"
param **.host[0..3].app[0].sendInterval 20ms
param **.host[0].app[0].packetName "\"UDP_Data_Sender0\""
param **.host[1].app[0].packetName "\"UDP_Data_Sender1\""
param **.host[2].app[0].packetName "\"UDP_Data_Sender2\""
param **.host[3].app[0].packetName "\"UDP_Data_Sender3\""
param **.host[0].generic.nextHop.nextHopParam "\"host[4].wlan[0]\""
param **.host[1].generic.nextHop.nextHopParam "\"host[7].wlan[0]\""
param **.host[2].generic.nextHop.nextHopParam "\"host[10].wlan[0]\""
param **.host[3].generic.nextHop.nextHopParam "\"host[13].wlan[0]\""
param **.host[4].generic.nextHop.nextHopParam "\"host[5].wlan[0]\""
param **.host[5].generic.nextHop.nextHopParam "\"host[6].wlan[0]\""
param **.host[6].generic.nextHop.nextHopParam "\"host[16].wlan[0]\""
param **.host[7].generic.nextHop.nextHopParam "\"host[8].wlan[0]\""
param **.host[8].generic.nextHop.nextHopParam "\"host[9].wlan[0]\""
param **.host[9].generic.nextHop.nextHopParam "\"host[17].wlan[0]\""
param **.host[10].generic.nextHop.nextHopParam "\"host[11].wlan[0]\""
param **.host[11].generic.nextHop.nextHopParam "\"host[12].wlan[0]\""
param **.host[12].generic.nextHop.nextHopParam "\"host[18].wlan[0]\""
param **.host[13].generic.nextHop.nextHopParam "\"host[14].wlan[0]\""
param **.host[14].generic.nextHop.nextHopParam "\"host[15].wlan[0]\""
param **.host[15].generic.nextHop.nextHopParam "\"host[19].wlan[0]\""
param **.host[16].generic.nextHop.nextHopParam "\"host[16].wlan[0]\""
param **.host[17].generic.nextHop.nextHopParam "\"host[17].wlan[0]\""
param **.host[18].generic.nextHop.nextHopParam "\"host[18].wlan[0]\""
param **.host[19].generic.nextHop.nextHopParam "\"host[19].wlan[0]\""
param **.host[*].mobility.initialZ 0m
param **.constraintAreaMaxX 1000m
param **.constraintAreaMaxY 1000m
param **.constraintAreaMaxZ 0m
param **.constraintAreaMinX 0m
param **.constraintAreaMinY 0m
param **.constraintAreaMinZ 0m

vector 0 NetworkModified.host[0].wlan[0].radio radioMode:vector ETV
attr interpolationmode sample-hold
attr source radioModeChanged
attr title "Radio mode, vector"
vector 1 NetworkModified.host[0].wlan[0].radio radioChannel:vector ETV
attr interpolationmode sample-hold
attr source radioChannelChanged
attr title "Radio channel, vector"
vector 2 NetworkModified.host[1].wlan[0].radio radioMode:vector ETV
attr interpolationmode sample-hold
attr source radioModeChanged
attr title "Radio mode, vector"
vector 3 NetworkModified.host[1].wlan[0].radio radioChannel:vector ETV
attr interpolationmode sample-hold
attr source radioChannelChanged
attr title "Radio channel, vector"
vector 4 NetworkModified.host[2].wlan[0].radio radioMode:vector ETV
attr interpolationmode sample-hold
attr source radioModeChanged
attr title "Radio mode, vector"
vector 5 NetworkModified.host[2].wlan[0].radio radioChannel:vector ETV
attr interpolationmode sample-hold
attr source radioChannelChanged
attr title "Radio channel, vector"
vector 6 NetworkModified.host[3].wlan[0].radio radioMode:vector ETV
attr interpolationmode sample-hold
attr source radioModeChanged
attr title "Radio mode, vector"
vector 7 NetworkModified.host[3].wlan[0].radio radioChannel:vector ETV
attr interpolationmode sample-hold
attr source radioChannelChanged
attr title "Radio channel, vector"
vector 8 NetworkModified.host[4].wlan[0].radio radioMode:vector ETV
attr interpolationmode sample-hold
attr source radioModeChanged
attr title "Radio mode, vector"
vector 9 NetworkModified.host[4].wlan[0].radio radioChannel:vector ETV
attr interpolationmode sample-hold
attr source radioChannelChanged
attr title "Radio channel, vector"
vector 10 NetworkModified.host[5].wlan[0].radio radioMode:vector ETV
attr interpolationmode sample-hold
attr source radioModeChanged
attr title "Radio mode, vector"
vector 11 NetworkModified.host[5].wlan[0].radio radioChannel:vector ETV
attr interpolationmode sample-hold
attr source radioChannelChanged
attr title "Radio channel, vector"
vector 12 NetworkModified.host[6].wlan[0].radio radioMode:vector ETV
attr interpolationmode sample-hold
attr source radioModeChanged
attr title "Radio mode, vector"
vector 13 NetworkModified.host[6].wlan[0].radio radioChannel:vector ETV
attr interpolationmode sample-hold
attr source radioChannelChanged
attr title "Radio channel, vector"
vector 14 NetworkModified.host[7].wlan[0].radio radioMode:vector ETV
attr interpolationmode sample-hold
attr source radioModeChanged
attr title "Radio mode, vector"
vector 15 NetworkModified.host[7].wlan[0].radio radioChannel:vector ETV
attr interpolationmode sample-hold
attr source radioChannelChanged
attr title "Radio channel, vector"
vector 16 NetworkModified.host[8].wlan[0].radio radioMode:vector ETV
attr interpolationmode sample-hold
attr source radioModeChanged
attr title "Radio mode, vector"
vector 17 NetworkModified.host[8].wlan[0].radio radioChannel:vector ETV
attr interpolationmode sample-hold
attr source radioChannelChanged
attr title "Radio channel, vector"
vector 18 NetworkModified.host[9].wlan[0].radio radioMode:vector ETV
attr interpolationmode sample-hold
attr source radioModeChanged
attr title "Radio mode, vector"
vector 19 NetworkModified.host[9].wlan[0].radio radioChannel:vector ETV
attr interpolationmode sample-hold
attr source radioChannelChanged
attr title "Radio channel, vector"
vector 20 NetworkModified.host[10].wlan[0].radio radioMode:vector ETV
attr interpolationmode sample-hold
attr source radioModeChanged
attr title "Radio mode, vector"
vector 21 NetworkModified.host[10].wlan[0].radio radioChannel:vector ETV
attr interpolationmode sample-hold
attr source radioChannelChanged
attr title "Radio channel, vector"
vector 22 NetworkModified.host[11].wlan[0].radio radioMode:vector ETV
attr interpolationmode sample-hold
attr source radioModeChanged
attr title "Radio mode, vector"
vector 23 NetworkModified.host[11].wlan[0].radio radioChannel:vector ETV
attr interpolationmode sample-hold
attr source radioChannelChanged
attr title "Radio channel, vector"
vector 24 NetworkModified.host[12].wlan[0].radio radioMode:vector ETV
attr interpolationmode sample-hold
attr source radioModeChanged
attr title "Radio mode, vector"
vector 25 NetworkModified.host[12].wlan[0].radio radioChannel:vector ETV
attr interpolationmode sample-hold
attr source radioChannelChanged
attr title "Radio channel, vector"
vector 26 NetworkModified.host[13].wlan[0].radio radioMode:vector ETV
attr interpolationmode sample-hold
attr source radioModeChanged
attr title "Radio mode, vector"
vector 27 NetworkModified.host[13].wlan[0].radio radioChannel:vector ETV
attr interpolationmode sample-hold
attr source radioChannelChanged
attr title "Radio channel, vector"
vector 28 NetworkModified.host[14].wlan[0].radio radioMode:vector ETV
attr interpolationmode sample-hold
attr source radioModeChanged
attr title "Radio mode, vector"
vector 29 NetworkModified.host[14].wlan[0].radio radioChannel:vector ETV
attr interpolationmode sample-hold
attr source radioChannelChanged
attr title "Radio channel, vector"
vector 30 NetworkModified.host[15].wlan[0].radio radioMode:vector ETV
attr interpolationmode sample-hold
attr source radioModeChanged
attr title "Radio mode, vector"
vector 31 NetworkModified.host[15].wlan[0].radio radioChannel:vector ETV
attr interpolationmode sample-hold
attr source radioChannelChanged
attr title "Radio channel, vector"
vector 32 NetworkModified.host[16].wlan[0].radio radioMode:vector ETV
attr interpolationmode sample-hold
attr source radioModeChanged
attr title "Radio mode, vector"
vector 33 NetworkModified.host[16].wlan[0].radio radioChannel:vector ETV
attr interpolationmode sample-hold
attr source radioChannelChanged
attr title "Radio channel, vector"
vector 34 NetworkModified.host[17].wlan[0].radio radioMode:vector ETV
attr interpolationmode sample-hold
attr source radioModeChanged
attr title "Radio mode, vector"
vector 35 NetworkModified.host[17].wlan[0].radio radioChannel:vector ETV
attr interpolationmode sample-hold
attr source radioChannelChanged
attr title "Radio channel, vector"
vector 36 NetworkModified.host[18].wlan[0].radio radioMode:vector ETV
attr interpolationmode sample-hold
attr source radioModeChanged
attr title "Radio mode, vector"
vector 37 NetworkModified.host[18].wlan[0].radio radioChannel:vector ETV
attr interpolationmode sample-hold
attr source radioChannelChanged
attr title "Radio channel, vector"
vector 38 NetworkModified.host[19].wlan[0].radio radioMode:vector ETV
attr interpolationmode sample-hold
attr source radioModeChanged
attr title "Radio mode, vector"
vector 39 NetworkModified.host[19].wlan[0].radio radioChannel:vector ETV
attr interpolationmode sample-hold
attr source radioChannelChanged
attr title "Radio channel, vector"
vector 40 NetworkModified.host[0].wlan[0].radio receptionState:vector ETV
attr interpolationmode sample-hold
attr source receptionStateChanged
attr title "Radio reception state, vector"
vector 41 NetworkModified.host[1].wlan[0].radio receptionState:vector ETV
attr interpolationmode sample-hold
attr source receptionStateChanged
attr title "Radio reception state, vector"
vector 42 NetworkModified.host[2].wlan[0].radio receptionState:vector ETV
attr interpolationmode sample-hold
attr source receptionStateChanged
attr title "Radio reception state, vector"
vector 43 NetworkModified.host[3].wlan[0].radio receptionState:vector ETV
attr interpolationmode sample-hold
attr source receptionStateChanged
attr title "Radio reception state, vector"
vector 44 NetworkModified.host[4].wlan[0].radio receptionState:vector ETV
attr interpolationmode sample-hold
attr source receptionStateChanged
attr title "Radio reception state, vector"
vector 45 NetworkModified.host[5].wlan[0].radio receptionState:vector ETV
attr interpolationmode sample-hold
attr source receptionStateChanged
attr title "Radio reception state, vector"
vector 46 NetworkModified.host[6].wlan[0].radio receptionState:vector ETV
attr interpolationmode sample-hold
attr source receptionStateChanged
attr title "Radio reception state, vector"
vector 47 NetworkModified.host[7].wlan[0].radio receptionState:vector ETV
attr interpolationmode sample-hold
attr source receptionStateChanged
attr title "Radio reception state, vector"
vector 48 NetworkModified.host[8].wlan[0].radio receptionState:vector ETV
attr interpolationmode sample-hold
attr source receptionStateChanged
attr title "Radio reception state, vector"
vector 49 NetworkModified.host[9].wlan[0].radio receptionState:vector ETV
attr interpolationmode sample-hold
attr source receptionStateChanged
attr title "Radio reception state, vector"
vector 50 NetworkModified.host[10].wlan[0].radio receptionState:vector ETV
attr interpolationmode sample-hold
attr source receptionStateChanged
attr title "Radio reception state, vector"
vector 51 NetworkModified.host[11].wlan[0].radio receptionState:vector ETV
attr interpolationmode sample-hold
attr source receptionStateChanged
attr title "Radio reception state, vector"
vector 52 NetworkModified.host[12].wlan[0].radio receptionState:vector ETV
attr interpolationmode sample-hold
attr source receptionStateChanged
attr title "Radio reception state, vector"
vector 53 NetworkModified.host[13].wlan[0].radio receptionState:vector ETV
attr interpolationmode sample-hold
attr source receptionStateChanged
attr title "Radio reception state, vector"
vector 54 NetworkModified.host[14].wlan[0].radio receptionState:vector ETV
attr interpolationmode sample-hold
attr source receptionStateChanged
attr title "Radio reception state, vector"
vector 55 NetworkModified.host[15].wlan[0].radio receptionState:vector ETV
attr interpolationmode sample-hold
attr source receptionStateChanged
attr title "Radio reception state, vector"
vector 56 NetworkModified.host[16].wlan[0].radio receptionState:vector ETV
attr interpolationmode sample-hold
attr source receptionStateChanged
attr title "Radio reception state, vector"
vector 57 NetworkModified.host[17].wlan[0].radio receptionState:vector ETV
attr interpolationmode sample-hold
attr source receptionStateChanged
attr title "Radio reception state, vector"
vector 58 NetworkModified.host[18].wlan[0].radio receptionState:vector ETV
attr interpolationmode sample-hold
attr source receptionStateChanged
attr title "Radio reception state, vector"
vector 59 NetworkModified.host[19].wlan[0].radio receptionState:vector ETV
attr interpolationmode sample-hold
attr source receptionStateChanged
attr title "Radio reception state, vector"
vector 60 NetworkModified.host[0].wlan[0].mac.dcf.recoveryProcedure contentionWindowChanged:vector ETV
attr interpolationmode sample-hold
attr title "contention window, vector"
vector 61 NetworkModified.host[1].wlan[0].mac.dcf.recoveryProcedure contentionWindowChanged:vector ETV
attr interpolationmode sample-hold
attr title "contention window, vector"
vector 62 NetworkModified.host[2].wlan[0].mac.dcf.recoveryProcedure contentionWindowChanged:vector ETV
attr interpolationmode sample-hold
attr title "contention window, vector"
vector 63 NetworkModified.host[3].wlan[0].mac.dcf.recoveryProcedure contentionWindowChanged:vector ETV
attr interpolationmode sample-hold
attr title "contention window, vector"
vector 64 NetworkModified.host[4].wlan[0].mac.dcf.recoveryProcedure contentionWindowChanged:vector ETV
attr interpolationmode sample-hold
attr title "contention window, vector"
vector 65 NetworkModified.host[5].wlan[0].mac.dcf.recoveryProcedure contentionWindowChanged:vector ETV
attr interpolationmode sample-hold
attr title "contention window, vector"
vector 66 NetworkModified.host[6].wlan[0].mac.dcf.recoveryProcedure contentionWindowChanged:vector ETV
attr interpolationmode sample-hold
attr title "contention window, vector"
vector 67 NetworkModified.host[7].wlan[0].mac.dcf.recoveryProcedure contentionWindowChanged:vector ETV
attr interpolationmode sample-hold
attr title "contention window, vector"
vector 68 NetworkModified.host[8].wlan[0].mac.dcf.recoveryProcedure contentionWindowChanged:vector ETV
attr interpolationmode sample-hold
attr title "contention window, vector"
vector 69 NetworkModified.host[9].wlan[0].mac.dcf.recoveryProcedure contentionWindowChanged:vector ETV
attr interpolationmode sample-hold
attr title "contention window, vector"
vector 70 NetworkModified.host[10].wlan[0].mac.dcf.recoveryProcedure contentionWindowChanged:vector ETV
attr interpolationmode sample-hold
attr title "contention window, vector"
vector 71 NetworkModified.host[11].wlan[0].mac.dcf.recoveryProcedure contentionWindowChanged:vector ETV
attr interpolationmode sample-hold
attr title "contention window, vector"
vector 72 NetworkModified.host[12].wlan[0].mac.dcf.recoveryProcedure contentionWindowChanged:vector ETV
attr interpolationmode sample-hold
attr title "contention window, vector"
vector 73 NetworkModified.host[13].wlan[0].mac.dcf.recoveryProcedure contentionWindowChanged:vector ETV
attr interpolationmode sample-hold
attr title "contention window, vector"
vector 74 NetworkModified.host[14].wlan[0].mac.dcf.recoveryProcedure contentionWindowChanged:vector ETV
attr interpolationmode sample-hold
attr title "contention window, vector"
vector 75 NetworkModified.host[15].wlan[0].mac.dcf.recoveryProcedure contentionWindowChanged:vector ETV
attr interpolationmode sample-hold
attr title "contention window, vector"
vector 76 NetworkModified.host[16].wlan[0].mac.dcf.recoveryProcedure contentionWindowChanged:vector ETV
attr interpolationmode sample-hold
attr title "contention window, vector"
vector 77 NetworkModified.host[17].wlan[0].mac.dcf.recoveryProcedure contentionWindowChanged:vector ETV
attr interpolationmode sample-hold
attr title "contention window, vector"
vector 78 NetworkModified.host[18].wlan[0].mac.dcf.recoveryProcedure contentionWindowChanged:vector ETV
attr interpolationmode sample-hold
attr title "contention window, vector"
vector 79 NetworkModified.host[19].wlan[0].mac.dcf.recoveryProcedure contentionWindowChanged:vector ETV
attr interpolationmode sample-hold
attr title "contention window, vector"
vector 80 NetworkModified.host[0].app[0] packetSent:vector(packetBytes) ETV
attr interpolationmode none
attr source packetSent
attr title "packets sent, vector(packetBytes)"
vector 81 NetworkModified.host[0].udp packetSent:vector(packetBytes) ETV
attr interpolationmode none
attr source packetSent
attr title "packets sent, vector(packetBytes)"
vector 82 NetworkModified.host[0].wlan[0].mac packetReceivedFromUpper:vector(packetBytes) ETV
attr interpolationmode none
attr title "packets received from upper layer, vector(packetBytes)"
vector 83 NetworkModified.host[0].wlan[0].mac.dcf.channelAccess.pendingQueue packetPushed:vector(packetBytes) ETV
attr interpolationmode none
attr title "packet pushed, vector(packetBytes)"
vector 84 NetworkModified.host[0].wlan[0].mac.dcf.channelAccess.pendingQueue queueLength:vector ETV
attr interpolationmode sample-hold
attr source "count(packetPushed) - count(packetPopped) - count(packetRemoved) - count(packetDropped)"
attr title "queue length, vector"
vector 85 NetworkModified.host[0].wlan[0].mac.dcf.channelAccess.contention backoffPeriodGenerated:vector ETV
attr interpolationmode none
attr title "backoff periods, vector"
vector 86 NetworkModified.host[0].wlan[0].mac.dcf.channelAccess.contention backoffActive:vector ETV
attr interpolationmode sample-hold
attr source count(backoffStarted)-count(backoffStopped)
attr title "backoff active, vector"
vector 87 NetworkModified.host[0].wlan[0].mac.dcf.channelAccess.pendingQueue packetPopped:vector(packetBytes) ETV
attr interpolationmode none
attr title "packet popped, vector(packetBytes)"
vector 88 NetworkModified.host[0].wlan[0].mac.dcf.channelAccess.pendingQueue queueingTime:vector ETV
attr interpolationmode none
attr source queueingTime(packetPopped)
attr title "queueing times, vector"
attr unit s
vector 89 NetworkModified.host[0].wlan[0].mac.dcf.channelAccess.inProgressFrames queueLength:vector ETV
attr interpolationmode sample-hold
attr source "count(packetEnqueued) - count(packetDequeued)"
attr title "queue length, vector"
vector 90 NetworkModified.host[0].wlan[0].mac.dcf datarateSelected:vector ETV
attr interpolationmode none
attr title "datarates selected, vector"
vector 91 NetworkModified.host[0].wlan[0].mac packetSentToLower:vector(packetBytes) ETV
attr interpolationmode none
attr title "packets sent to lower layer, vector(packetBytes)"
vector 92 NetworkModified.host[0].wlan[0].mac.dcf frameSequenceActive:vector ETV
attr interpolationmode sample-hold
attr source count(frameSequenceStarted)-count(frameSequenceFinished)
attr title "frame sequence active, vector"
vector 93 NetworkModified.host[0].wlan[0].radio transmissionState:vector ETV
attr interpolationmode sample-hold
attr source transmissionStateChanged
attr title "Radio transmission state, vector"
vector 94 NetworkModified.host[0].wlan[0].mac.dcf packetSentToPeer:vector(packetBytes) ETV
attr interpolationmode none
attr title "packets sent, vector(packetBytes)"
vector 95 NetworkModified.host[0].wlan[0].mac.dcf packetSentToPeerUnicast:vector(packetBytes) ETV
attr interpolationmode none
attr source ieee80211Unicast(packetSentToPeer)
attr title "packets sent: unicast, vector(packetBytes)"
vector 96 NetworkModified.host[0].wlan[0].mac.dcf packetSentToPeerWithoutRetry:vector(packetBytes) ETV
attr interpolationmode none
attr source ieee80211NotRetry(packetSentToPeer)
attr title "packets sent: without retry, vector(packetBytes)"
vector 97 NetworkModified.host[0].wlan[0].mac.rx nav:vector ETV
attr interpolationmode linear
attr source navChanged
attr title "network allocation vector, vector"
vector 98 NetworkModified.host[4].wlan[0].mac packetReceivedFromLower:vector(packetBytes) ETV
attr interpolationmode none
attr title "packets received from lower layer, vector(packetBytes)"
vector 99 NetworkModified.host[4].wlan[0].mac.dcf packetReceivedFromPeer:vector(packetBytes) ETV
attr interpolationmode none
attr title "packets received, vector(packetBytes)"
vector 100 NetworkModified.host[4].wlan[0].mac.dcf packetReceivedFromPeerUnicast:vector(packetBytes) ETV
attr interpolationmode none
attr source ieee80211Unicast(packetReceivedFromPeer)
attr title "packets received: unicast, vector(packetBytes)"
vector 101 NetworkModified.host[4].wlan[0].mac.dcf packetReceivedFromPeerWithoutRetry:vector(packetBytes) ETV
attr interpolationmode none
attr source ieee80211NotRetry(packetReceivedFromPeer)
attr title "packets received: without retry, vector(packetBytes)"
vector 102 NetworkModified.host[4].wlan[0].mac.dcf datarateSelected:vector ETV
attr interpolationmode none
attr title "datarates selected, vector"
vector 103 NetworkModified.host[4].wlan[0].mac packetSentToUpper:vector(packetBytes) ETV
attr interpolationmode none
attr title "packets sent to upper layer, vector(packetBytes)"
vector 104 NetworkModified.host[4].wlan[0].mac packetReceivedFromUpper:vector(packetBytes) ETV
attr interpolationmode none
attr title "packets received from upper layer, vector(packetBytes)"
vector 105 NetworkModified.host[4].wlan[0].mac.dcf.channelAccess.pendingQueue packetPushed:vector(packetBytes) ETV
attr interpolationmode none
attr title "packet pushed, vector(packetBytes)"
vector 106 NetworkModified.host[4].wlan[0].mac.dcf.channelAccess.pendingQueue queueLength:vector ETV
attr interpolationmode sample-hold
attr source "count(packetPushed) - count(packetPopped) - count(packetRemoved) - count(packetDropped)"
attr title "queue length, vector"
vector 107 NetworkModified.host[4].wlan[0].mac.dcf.channelAccess.contention backoffPeriodGenerated:vector ETV
attr interpolationmode none
attr title "backoff periods, vector"
vector 108 NetworkModified.host[4].wlan[0].mac.dcf.channelAccess.contention backoffActive:vector ETV
attr interpolationmode sample-hold
attr source count(backoffStarted)-count(backoffStopped)
attr title "backoff active, vector"
vector 109 NetworkModified.host[5].wlan[0].mac packetReceivedFromLower:vector(packetBytes) ETV
attr interpolationmode none
attr title "packets received from lower layer, vector(packetBytes)"
vector 110 NetworkModified.host[5].wlan[0].mac.rx nav:vector ETV
attr interpolationmode linear
attr source navChanged
attr title "network allocation vector, vector"
vector 111 NetworkModified.host[5].wlan[0].mac.dcf packetDrop:vector(packetBytes) ETV
attr interpolationmode none
attr source packetDropped
attr title "packet drops, vector(packetBytes)"
vector 112 NetworkModified.host[5].wlan[0].mac.dcf packetDropNotAddressedToUs:vector(packetBytes) ETV
attr interpolationmode none
attr source packetDropReasonIsNotAddressedToUs(packetDropped)
attr title "packet drops: not addressed to us, vector(packetBytes)"
vector 113 NetworkModified.host[5].wlan[0].mac packetDrop:vector(packetBytes) ETV
attr interpolationmode none
attr source packetDropped
attr title "packet drops, vector(packetBytes)"
vector 114 NetworkModified.host[5].wlan[0].mac packetDropNotAddressedToUs:vector(packetBytes) ETV
attr interpolationmode none
attr source packetDropReasonIsNotAddressedToUs(packetDropped)
attr title "packet drops: not addressed to us, vector(packetBytes)"
vector 115 NetworkModified.host[6].wlan[0].mac packetReceivedFromLower:vector(packetBytes) ETV
attr interpolationmode none
attr title "packets received from lower layer, vector(packetBytes)"
vector 116 NetworkModified.host[6].wlan[0].mac.rx nav:vector ETV
attr interpolationmode linear
attr source navChanged
attr title "network allocation vector, vector"
vector 117 NetworkModified.host[6].wlan[0].mac.dcf packetDrop:vector(packetBytes) ETV
attr interpolationmode none
attr source packetDropped
attr title "packet drops, vector(packetBytes)"
vector 118 NetworkModified.host[6].wlan[0].mac.dcf packetDropNotAddressedToUs:vector(packetBytes) ETV
attr interpolationmode none
attr source packetDropReasonIsNotAddressedToUs(packetDropped)
attr title "packet drops: not addressed to us, vector(packetBytes)"
vector 119 NetworkModified.host[6].wlan[0].mac packetDrop:vector(packetBytes) ETV
attr interpolationmode none
attr source packetDropped
attr title "packet drops, vector(packetBytes)"
vector 120 NetworkModified.host[6].wlan[0].mac packetDropNotAddressedToUs:vector(packetBytes) ETV
attr interpolationmode none
attr source packetDropReasonIsNotAddressedToUs(packetDropped)
attr title "packet drops: not addressed to us, vector(packetBytes)"
vector 121 NetworkModified.host[16].wlan[0].mac packetReceivedFromLower:vector(packetBytes) ETV
attr interpolationmode none
attr title "packets received from lower layer, vector(packetBytes)"
vector 122 NetworkModified.host[16].wlan[0].mac.rx nav:vector ETV
attr interpolationmode linear
attr source navChanged
attr title "network allocation vector, vector"
vector 123 NetworkModified.host[16].wlan[0].mac.dcf packetDrop:vector(packetBytes) ETV
attr interpolationmode none
attr source packetDropped
attr title "packet drops, vector(packetBytes)"
vector 124 NetworkModified.host[16].wlan[0].mac.dcf packetDropNotAddressedToUs:vector(packetBytes) ETV
attr interpolationmode none
attr source packetDropReasonIsNotAddressedToUs(packetDropped)
attr title "packet drops: not addressed to us, vector(packetBytes)"
vector 125 NetworkModified.host[16].wlan[0].mac packetDrop:vector(packetBytes) ETV
attr interpolationmode none
attr source packetDropped
attr title "packet drops, vector(packetBytes)"
vector 126 NetworkModified.host[16].wlan[0].mac packetDropNotAddressedToUs:vector(packetBytes) ETV
attr interpolationmode none
attr source packetDropReasonIsNotAddressedToUs(packetDropped)
attr title "packet drops: not addressed to us, vector(packetBytes)"
vector 127 NetworkModified.host[4].wlan[0].mac packetSentToLower:vector(packetBytes) ETV
attr interpolationmode none
attr title "packets sent to lower layer, vector(packetBytes)"
vector 128 NetworkModified.host[4].wlan[0].radio transmissionState:vector ETV
attr interpolationmode sample-hold
attr source transmissionStateChanged
attr title "Radio transmission state, vector"
vector 129 NetworkModified.host[4].wlan[0].mac.dcf packetSentToPeer:vector(packetBytes) ETV
attr interpolationmode none
attr title "packets sent, vector(packetBytes)"
vector 130 NetworkModified.host[4].wlan[0].mac.dcf packetSentToPeerUnicast:vector(packetBytes) ETV
attr interpolationmode none
attr source ieee80211Unicast(packetSentToPeer)
attr title "packets sent: unicast, vector(packetBytes)"
vector 131 NetworkModified.host[4].wlan[0].mac.dcf packetSentToPeerWithoutRetry:vector(packetBytes) ETV
attr interpolationmode none
attr source ieee80211NotRetry(packetSentToPeer)
attr title "packets sent: without retry, vector(packetBytes)"
vector 132 NetworkModified.host[0].wlan[0].mac packetReceivedFromLower:vector(packetBytes) ETV
attr interpolationmode none
attr title "packets received from lower layer, vector(packetBytes)"
vector 133 NetworkModified.host[0].wlan[0].mac.dcf packetReceivedFromPeer:vector(packetBytes) ETV
attr interpolationmode none
attr title "packets received, vector(packetBytes)"
vector 134 NetworkModified.host[0].wlan[0].mac.dcf packetReceivedFromPeerUnicast:vector(packetBytes) ETV
attr interpolationmode none
attr source ieee80211Unicast(packetReceivedFromPeer)
attr title "packets received: unicast, vector(packetBytes)"
vector 135 NetworkModified.host[0].wlan[0].mac.dcf packetReceivedFromPeerWithoutRetry:vector(packetBytes) ETV
attr interpolationmode none
attr source ieee80211NotRetry(packetReceivedFromPeer)
attr title "packets received: without retry, vector(packetBytes)"
vector 136 NetworkModified.host[0].wlan[0].mac.dcf.channelAccess.inProgressFrames queueingTime:vector ETV
attr interpolationmode none
attr source queueingTime(packetDequeued)
attr title "queueing times, vector"
vector 137 NetworkModified.host[17].wlan[0].mac packetReceivedFromLower:vector(packetBytes) ETV
attr interpolationmode none
attr title "packets received from lower layer, vector(packetBytes)"
vector 138 NetworkModified.host[17].wlan[0].mac.dcf packetDrop:vector(packetBytes) ETV
attr interpolationmode none
attr source packetDropped
attr title "packet drops, vector(packetBytes)"
vector 139 NetworkModified.host[17].wlan[0].mac.dcf packetDropNotAddressedToUs:vector(packetBytes) ETV
attr interpolationmode none
attr source packetDropReasonIsNotAddressedToUs(packetDropped)
attr title "packet drops: not addressed to us, vector(packetBytes)"
vector 140 NetworkModified.host[17].wlan[0].mac packetDrop:vector(packetBytes) ETV
attr interpolationmode none
attr source packetDropped
attr title "packet drops, vector(packetBytes)"
vector 141 NetworkModified.host[17].wlan[0].mac packetDropNotAddressedToUs:vector(packetBytes) ETV
attr interpolationmode none
attr source packetDropReasonIsNotAddressedToUs(packetDropped)
attr title "packet drops: not addressed to us, vector(packetBytes)"
vector 142 NetworkModified.host[1].app[0] packetSent:vector(packetBytes) ETV
attr interpolationmode none
attr source packetSent
attr title "packets sent, vector(packetBytes)"
vector 143 NetworkModified.host[1].udp packetSent:vector(packetBytes) ETV
attr interpolationmode none
attr source packetSent
attr title "packets sent, vector(packetBytes)"
vector 144 NetworkModified.host[1].wlan[0].mac packetReceivedFromUpper:vector(packetBytes) ETV
attr interpolationmode none
attr title "packets received from upper layer, vector(packetBytes)"
vector 145 NetworkModified.host[1].wlan[0].mac.dcf.channelAccess.pendingQueue packetPushed:vector(packetBytes) ETV
attr interpolationmode none
attr title "packet pushed, vector(packetBytes)"
vector 146 NetworkModified.host[1].wlan[0].mac.dcf.channelAccess.pendingQueue queueLength:vector ETV
attr interpolationmode sample-hold
attr source "count(packetPushed) - count(packetPopped) - count(packetRemoved) - count(packetDropped)"
attr title "queue length, vector"
vector 147 NetworkModified.host[1].wlan[0].mac.dcf.channelAccess.contention backoffPeriodGenerated:vector ETV
attr interpolationmode none
attr title "backoff periods, vector"
vector 148 NetworkModified.host[1].wlan[0].mac.dcf.channelAccess.contention backoffActive:vector ETV
attr interpolationmode sample-hold
attr source count(backoffStarted)-count(backoffStopped)
attr title "backoff active, vector"
vector 149 NetworkModified.host[1].wlan[0].mac.dcf.channelAccess.pendingQueue packetPopped:vector(packetBytes) ETV
attr interpolationmode none
attr title "packet popped, vector(packetBytes)"
vector 150 NetworkModified.host[1].wlan[0].mac.dcf.channelAccess.pendingQueue queueingTime:vector ETV
attr interpolationmode none
attr source queueingTime(packetPopped)
attr title "queueing times, vector"
attr unit s
vector 151 NetworkModified.host[1].wlan[0].mac.dcf.channelAccess.inProgressFrames queueLength:vector ETV
attr interpolationmode sample-hold
attr source "count(packetEnqueued) - count(packetDequeued)"
attr title "queue length, vector"
vector 152 NetworkModified.host[1].wlan[0].mac.dcf datarateSelected:vector ETV
attr interpolationmode none
attr title "datarates selected, vector"
vector 153 NetworkModified.host[1].wlan[0].mac packetSentToLower:vector(packetBytes) ETV
attr interpolationmode none
attr title "packets sent to lower layer, vector(packetBytes)"
vector 154 NetworkModified.host[1].wlan[0].mac.dcf frameSequenceActive:vector ETV
attr interpolationmode sample-hold
attr source count(frameSequenceStarted)-count(frameSequenceFinished)
attr title "frame sequence active, vector"
vector 155 NetworkModified.host[1].wlan[0].radio transmissionState:vector ETV
attr interpolationmode sample-hold
attr source transmissionStateChanged
attr title "Radio transmission state, vector"
vector 156 NetworkModified.host[1].wlan[0].mac.dcf packetSentToPeer:vector(packetBytes) ETV
attr interpolationmode none
attr title "packets sent, vector(packetBytes)"
vector 157 NetworkModified.host[1].wlan[0].mac.dcf packetSentToPeerUnicast:vector(packetBytes) ETV
attr interpolationmode none
attr source ieee80211Unicast(packetSentToPeer)
attr title "packets sent: unicast, vector(packetBytes)"
vector 158 NetworkModified.host[1].wlan[0].mac.dcf packetSentToPeerWithoutRetry:vector(packetBytes) ETV
attr interpolationmode none
attr source ieee80211NotRetry(packetSentToPeer)
attr title "packets sent: without retry, vector(packetBytes)"
vector 159 NetworkModified.host[1].wlan[0].mac.rx nav:vector ETV
attr interpolationmode linear
attr source navChanged
attr title "network allocation vector, vector"
vector 160 NetworkModified.host[7].wlan[0].mac packetReceivedFromLower:vector(packetBytes) ETV
attr interpolationmode none
attr title "packets received from lower layer, vector(packetBytes)"
vector 161 NetworkModified.host[7].wlan[0].mac.dcf packetReceivedFromPeer:vector(packetBytes) ETV
attr interpolationmode none
attr title "packets received, vector(packetBytes)"
vector 162 NetworkModified.host[7].wlan[0].mac.dcf packetReceivedFromPeerUnicast:vector(packetBytes) ETV
attr interpolationmode none
attr source ieee80211Unicast(packetReceivedFromPeer)
attr title "packets received: unicast, vector(packetBytes)"
vector 163 NetworkModified.host[7].wlan[0].mac.dcf packetReceivedFromPeerWithoutRetry:vector(packetBytes) ETV
attr interpolationmode none
attr source ieee80211NotRetry(packetReceivedFromPeer)
attr title "packets received: without retry, vector(packetBytes)"
vector 164 NetworkModified.host[7].wlan[0].mac.dcf datarateSelected:vector ETV
attr interpolationmode none
attr title "datarates selected, vector"
vector 165 NetworkModified.host[7].wlan[0].mac packetSentToUpper:vector(packetBytes) ETV
attr interpolationmode none
attr title "packets sent to upper layer, vector(packetBytes)"
vector 166 NetworkModified.host[7].wlan[0].mac packetReceivedFromUpper:vector(packetBytes) ETV
attr interpolationmode none
attr title "packets received from upper layer, vector(packetBytes)"
vector 167 NetworkModified.host[7].wlan[0].mac.dcf.channelAccess.pendingQueue packetPushed:vector(packetBytes) ETV
attr interpolationmode none
attr title "packet pushed, vector(packetBytes)"
vector 168 NetworkModified.host[7].wlan[0].mac.dcf.channelAccess.pendingQueue queueLength:vector ETV
attr interpolationmode sample-hold
attr source "count(packetPushed) - count(packetPopped) - count(packetRemoved) - count(packetDropped)"
attr title "queue length, vector"
vector 169 NetworkModified.host[7].wlan[0].mac.dcf.channelAccess.contention backoffPeriodGenerated:vector ETV
attr interpolationmode none
attr title "backoff periods, vector"
vector 170 NetworkModified.host[7].wlan[0].mac.dcf.channelAccess.contention backoffActive:vector ETV
attr interpolationmode sample-hold
attr source count(backoffStarted)-count(backoffStopped)
attr title "backoff active, vector"
vector 171 NetworkModified.host[8].wlan[0].mac packetReceivedFromLower:vector(packetBytes) ETV
attr interpolationmode none
attr title "packets received from lower layer, vector(packetBytes)"
vector 172 NetworkModified.host[8].wlan[0].mac.rx nav:vector ETV
attr interpolationmode linear
attr source navChanged
attr title "network allocation vector, vector"
vector 173 NetworkModified.host[8].wlan[0].mac.dcf packetDrop:vector(packetBytes) ETV
attr interpolationmode none
attr source packetDropped
attr title "packet drops, vector(packetBytes)"
vector 174 NetworkModified.host[8].wlan[0].mac.dcf packetDropNotAddressedToUs:vector(packetBytes) ETV
attr interpolationmode none
attr source packetDropReasonIsNotAddressedToUs(packetDropped)
attr title "packet drops: not addressed to us, vector(packetBytes)"
vector 175 NetworkModified.host[8].wlan[0].mac packetDrop:vector(packetBytes) ETV
attr interpolationmode none
attr source packetDropped
attr title "packet drops, vector(packetBytes)"
vector 176 NetworkModified.host[8].wlan[0].mac packetDropNotAddressedToUs:vector(packetBytes) ETV
attr interpolationmode none
attr source packetDropReasonIsNotAddressedToUs(packetDropped)
attr title "packet drops: not addressed to us, vector(packetBytes)"
vector 177 NetworkModified.host[9].wlan[0].mac packetReceivedFromLower:vector(packetBytes) ETV
attr interpolationmode none
attr title "packets received from lower layer, vector(packetBytes)"
vector 178 NetworkModified.host[9].wlan[0].mac.rx nav:vector ETV
attr interpolationmode linear
attr source navChanged
attr title "network allocation vector, vector"
vector 179 NetworkModified.host[9].wlan[0].mac.dcf packetDrop:vector(packetBytes) ETV
attr interpolationmode none
attr source packetDropped
attr title "packet drops, vector(packetBytes)"
vector 180 NetworkModified.host[9].wlan[0].mac.dcf packetDropNotAddressedToUs:vector(packetBytes) ETV
attr interpolationmode none
attr source packetDropReasonIsNotAddressedToUs(packetDropped)
attr title "packet drops: not addressed to us, vector(packetBytes)"
vector 181 NetworkModified.host[9].wlan[0].mac packetDrop:vector(packetBytes) ETV
attr interpolationmode none
attr source packetDropped
attr title "packet drops, vector(packetBytes)"
vector 182 NetworkModified.host[9].wlan[0].mac packetDropNotAddressedToUs:vector(packetBytes) ETV
attr interpolationmode none
attr source packetDropReasonIsNotAddressedToUs(packetDropped)
attr title "packet drops: not addressed to us, vector(packetBytes)"
vector 183 NetworkModified.host[7].wlan[0].mac packetSentToLower:vector(packetBytes) ETV
attr interpolationmode none
attr title "packets sent to lower layer, vector(packetBytes)"
vector 184 NetworkModified.host[7].wlan[0].radio transmissionState:vector ETV
attr interpolationmode sample-hold
attr source transmissionStateChanged
attr title "Radio transmission state, vector"
vector 185 NetworkModified.host[4].wlan[0].mac.dcf.channelAccess.pendingQueue packetPopped:vector(packetBytes) ETV
attr interpolationmode none
attr title "packet popped, vector(packetBytes)"
vector 186 NetworkModified.host[4].wlan[0].mac.dcf.channelAccess.pendingQueue queueingTime:vector ETV
attr interpolationmode none
attr source queueingTime(packetPopped)
attr title "queueing times, vector"
attr unit s
vector 187 NetworkModified.host[4].wlan[0].mac.dcf.channelAccess.inProgressFrames queueLength:vector ETV
attr interpolationmode sample-hold
attr source "count(packetEnqueued) - count(packetDequeued)"
attr title "queue length, vector"
vector 188 NetworkModified.host[4].wlan[0].mac.dcf frameSequenceActive:vector ETV
attr interpolationmode sample-hold
attr source count(frameSequenceStarted)-count(frameSequenceFinished)
attr title "frame sequence active, vector"
vector 189 NetworkModified.host[7].wlan[0].mac.dcf packetSentToPeer:vector(packetBytes) ETV
attr interpolationmode none
attr title "packets sent, vector(packetBytes)"
vector 190 NetworkModified.host[7].wlan[0].mac.dcf packetSentToPeerUnicast:vector(packetBytes) ETV
attr interpolationmode none
attr source ieee80211Unicast(packetSentToPeer)
attr title "packets sent: unicast, vector(packetBytes)"
vector 191 NetworkModified.host[7].wlan[0].mac.dcf packetSentToPeerWithoutRetry:vector(packetBytes) ETV
attr interpolationmode none
attr source ieee80211NotRetry(packetSentToPeer)
attr title "packets sent: without retry, vector(packetBytes)"
vector 192 NetworkModified.host[1].wlan[0].mac packetReceivedFromLower:vector(packetBytes) ETV
attr interpolationmode none
attr title "packets received from lower layer, vector(packetBytes)"
vector 193 NetworkModified.host[1].wlan[0].mac.dcf packetReceivedFromPeer:vector(packetBytes) ETV
attr interpolationmode none
attr title "packets received, vector(packetBytes)"
vector 194 NetworkModified.host[1].wlan[0].mac.dcf packetReceivedFromPeerUnicast:vector(packetBytes) ETV
attr interpolationmode none
attr source ieee80211Unicast(packetReceivedFromPeer)
attr title "packets received: unicast, vector(packetBytes)"
vector 195 NetworkModified.host[1].wlan[0].mac.dcf packetReceivedFromPeerWithoutRetry:vector(packetBytes) ETV
attr interpolationmode none
attr source ieee80211NotRetry(packetReceivedFromPeer)
attr title "packets received: without retry, vector(packetBytes)"
vector 196 NetworkModified.host[1].wlan[0].mac.dcf.channelAccess.inProgressFrames queueingTime:vector ETV
attr interpolationmode none
attr source queueingTime(packetDequeued)
attr title "queueing times, vector"
vector 197 NetworkModified.host[9].wlan[0].mac packetDropIncorrectlyReceived:vector(packetBytes) ETV
attr interpolationmode none
attr source packetDropReasonIsIncorrectlyReceived(packetDropped)
attr title "packet drops: incorrectly received, vector(packetBytes)"
vector 198 NetworkModified.host[4].wlan[0].mac.rx nav:vector ETV
attr interpolationmode linear
attr source navChanged
attr title "network allocation vector, vector"
vector 199 NetworkModified.host[0].wlan[0].mac.dcf packetDrop:vector(packetBytes) ETV
attr interpolationmode none
attr source packetDropped
attr title "packet drops, vector(packetBytes)"
vector 200 NetworkModified.host[0].wlan[0].mac.dcf packetDropNotAddressedToUs:vector(packetBytes) ETV
attr interpolationmode none
attr source packetDropReasonIsNotAddressedToUs(packetDropped)
attr title "packet drops: not addressed to us, vector(packetBytes)"
vector 201 NetworkModified.host[0].wlan[0].mac packetDrop:vector(packetBytes) ETV
attr interpolationmode none
attr source packetDropped
attr title "packet drops, vector(packetBytes)"
vector 202 NetworkModified.host[0].wlan[0].mac packetDropNotAddressedToUs:vector(packetBytes) ETV
attr interpolationmode none
attr source packetDropReasonIsNotAddressedToUs(packetDropped)
attr title "packet drops: not addressed to us, vector(packetBytes)"
vector 203 NetworkModified.host[5].wlan[0].mac.dcf packetReceivedFromPeer:vector(packetBytes) ETV
attr interpolationmode none
attr title "packets received, vector(packetBytes)"
vector 204 NetworkModified.host[5].wlan[0].mac.dcf packetReceivedFromPeerUnicast:vector(packetBytes) ETV
attr interpolationmode none
attr source ieee80211Unicast(packetReceivedFromPeer)
attr title "packets received: unicast, vector(packetBytes)"
vector 205 NetworkModified.host[5].wlan[0].mac.dcf packetReceivedFromPeerWithoutRetry:vector(packetBytes) ETV
attr interpolationmode none
attr source ieee80211NotRetry(packetReceivedFromPeer)
attr title "packets received: without retry, vector(packetBytes)"
vector 206 NetworkModified.host[5].wlan[0].mac.dcf datarateSelected:vector ETV
attr interpolationmode none
attr title "datarates selected, vector"
vector 207 NetworkModified.host[5].wlan[0].mac packetSentToUpper:vector(packetBytes) ETV
attr interpolationmode none
attr title "packets sent to upper layer, vector(packetBytes)"
vector 208 NetworkModified.host[5].wlan[0].mac packetReceivedFromUpper:vector(packetBytes) ETV
attr interpolationmode none
attr title "packets received from upper layer, vector(packetBytes)"
vector 209 NetworkModified.host[5].wlan[0].mac.dcf.channelAccess.pendingQueue packetPushed:vector(packetBytes) ETV
attr interpolationmode none
attr title "packet pushed, vector(packetBytes)"
vector 210 NetworkModified.host[5].wlan[0].mac.dcf.channelAccess.pendingQueue queueLength:vector ETV
attr interpolationmode sample-hold
attr source "count(packetPushed) - count(packetPopped) - count(packetRemoved) - count(packetDropped)"
attr title "queue length, vector"
vector 211 NetworkModified.host[5].wlan[0].mac.dcf.channelAccess.contention backoffPeriodGenerated:vector ETV
attr interpolationmode none
attr title "backoff periods, vector"
vector 212 NetworkModified.host[5].wlan[0].mac.dcf.channelAccess.contention backoffActive:vector ETV
attr interpolationmode sample-hold
attr source count(backoffStarted)-count(backoffStopped)
attr title "backoff active, vector"
vector 213 NetworkModified.host[5].wlan[0].mac packetSentToLower:vector(packetBytes) ETV
attr interpolationmode none
attr title "packets sent to lower layer, vector(packetBytes)"
vector 214 NetworkModified.host[5].wlan[0].radio transmissionState:vector ETV
attr interpolationmode sample-hold
attr source transmissionStateChanged
attr title "Radio transmission state, vector"
vector 215 NetworkModified.host[5].wlan[0].mac.dcf packetSentToPeer:vector(packetBytes) ETV
attr interpolationmode none
attr title "packets sent, vector(packetBytes)"
vector 216 NetworkModified.host[5].wlan[0].mac.dcf packetSentToPeerUnicast:vector(packetBytes) ETV
attr interpolationmode none
attr source ieee80211Unicast(packetSentToPeer)
attr title "packets sent: unicast, vector(packetBytes)"
vector 217 NetworkModified.host[5].wlan[0].mac.dcf packetSentToPeerWithoutRetry:vector(packetBytes) ETV
attr interpolationmode none
attr source ieee80211NotRetry(packetSentToPeer)
attr title "packets sent: without retry, vector(packetBytes)"
vector 218 NetworkModified.host[4].wlan[0].mac.dcf.channelAccess.inProgressFrames queueingTime:vector ETV
attr interpolationmode none
attr source queueingTime(packetDequeued)
attr title "queueing times, vector"
vector 219 NetworkModified.host[5].wlan[0].mac.dcf.channelAccess.pendingQueue packetPopped:vector(packetBytes) ETV
attr interpolationmode none
attr title "packet popped, vector(packetBytes)"
vector 220 NetworkModified.host[5].wlan[0].mac.dcf.channelAccess.pendingQueue queueingTime:vector ETV
attr interpolationmode none
attr source queueingTime(packetPopped)
attr title "queueing times, vector"
attr unit s
vector 221 NetworkModified.host[5].wlan[0].mac.dcf.channelAccess.inProgressFrames queueLength:vector ETV
attr interpolationmode sample-hold
attr source "count(packetEnqueued) - count(packetDequeued)"
attr title "queue length, vector"
vector 222 NetworkModified.host[5].wlan[0].mac.dcf frameSequenceActive:vector ETV
attr interpolationmode sample-hold
attr source count(frameSequenceStarted)-count(frameSequenceFinished)
attr title "frame sequence active, vector"
vector 223 NetworkModified.host[4].wlan[0].mac.dcf packetDrop:vector(packetBytes) ETV
attr interpolationmode none
attr source packetDropped
attr title "packet drops, vector(packetBytes)"
vector 224 NetworkModified.host[4].wlan[0].mac.dcf packetDropNotAddressedToUs:vector(packetBytes) ETV
attr interpolationmode none
attr source packetDropReasonIsNotAddressedToUs(packetDropped)
attr title "packet drops: not addressed to us, vector(packetBytes)"
vector 225 NetworkModified.host[4].wlan[0].mac packetDrop:vector(packetBytes) ETV
attr interpolationmode none
attr source packetDropped
attr title "packet drops, vector(packetBytes)"
vector 226 NetworkModified.host[4].wlan[0].mac packetDropNotAddressedToUs:vector(packetBytes) ETV
attr interpolationmode none
attr source packetDropReasonIsNotAddressedToUs(packetDropped)
attr title "packet drops: not addressed to us, vector(packetBytes)"
vector 227 NetworkModified.host[6].wlan[0].mac.dcf packetReceivedFromPeer:vector(packetBytes) ETV
attr interpolationmode none
attr title "packets received, vector(packetBytes)"
vector 228 NetworkModified.host[6].wlan[0].mac.dcf packetReceivedFromPeerUnicast:vector(packetBytes) ETV
attr interpolationmode none
attr source ieee80211Unicast(packetReceivedFromPeer)
attr title "packets received: unicast, vector(packetBytes)"
vector 229 NetworkModified.host[6].wlan[0].mac.dcf packetReceivedFromPeerWithoutRetry:vector(packetBytes) ETV
attr interpolationmode none
attr source ieee80211NotRetry(packetReceivedFromPeer)
attr title "packets received: without retry, vector(packetBytes)"
vector 230 NetworkModified.host[6].wlan[0].mac.dcf datarateSelected:vector ETV
attr interpolationmode none
attr title "datarates selected, vector"
vector 231 NetworkModified.host[6].wlan[0].mac packetSentToUpper:vector(packetBytes) ETV
attr interpolationmode none
attr title "packets sent to upper layer, vector(packetBytes)"
vector 232 NetworkModified.host[6].wlan[0].mac packetReceivedFromUpper:vector(packetBytes) ETV
attr interpolationmode none
attr title "packets received from upper layer, vector(packetBytes)"
vector 233 NetworkModified.host[6].wlan[0].mac.dcf.channelAccess.pendingQueue packetPushed:vector(packetBytes) ETV
attr interpolationmode none
attr title "packet pushed, vector(packetBytes)"
vector 234 NetworkModified.host[6].wlan[0].mac.dcf.channelAccess.pendingQueue queueLength:vector ETV
attr interpolationmode sample-hold
attr source "count(packetPushed) - count(packetPopped) - count(packetRemoved) - count(packetDropped)"
attr title "queue length, vector"
vector 235 NetworkModified.host[6].wlan[0].mac.dcf.channelAccess.contention backoffPeriodGenerated:vector ETV
attr interpolationmode none
attr title "backoff periods, vector"
vector 236 NetworkModified.host[6].wlan[0].mac.dcf.channelAccess.contention backoffActive:vector ETV
attr interpolationmode sample-hold
attr source count(backoffStarted)-count(backoffStopped)
attr title "backoff active, vector"
vector 237 NetworkModified.host[17].wlan[0].mac.rx nav:vector ETV
attr interpolationmode linear
attr source navChanged
attr title "network allocation vector, vector"
vector 238 NetworkModified.host[6].wlan[0].mac packetSentToLower:vector(packetBytes) ETV
attr interpolationmode none
attr title "packets sent to lower layer, vector(packetBytes)"
vector 239 NetworkModified.host[6].wlan[0].radio transmissionState:vector ETV
attr interpolationmode sample-hold
attr source transmissionStateChanged
attr title "Radio transmission state, vector"
vector 240 NetworkModified.host[6].wlan[0].mac.dcf packetSentToPeer:vector(packetBytes) ETV
attr interpolationmode none
attr title "packets sent, vector(packetBytes)"
vector 241 NetworkModified.host[6].wlan[0].mac.dcf packetSentToPeerUnicast:vector(packetBytes) ETV
attr interpolationmode none
attr source ieee80211Unicast(packetSentToPeer)
attr title "packets sent: unicast, vector(packetBytes)"
vector 242 NetworkModified.host[6].wlan[0].mac.dcf packetSentToPeerWithoutRetry:vector(packetBytes) ETV
attr interpolationmode none
attr source ieee80211NotRetry(packetSentToPeer)
attr title "packets sent: without retry, vector(packetBytes)"
vector 243 NetworkModified.host[5].wlan[0].mac.dcf.channelAccess.inProgressFrames queueingTime:vector ETV
attr interpolationmode none
attr source queueingTime(packetDequeued)
attr title "queueing times, vector"
vector 244 NetworkModified.host[6].wlan[0].mac.dcf.channelAccess.pendingQueue packetPopped:vector(packetBytes) ETV
attr interpolationmode none
attr title "packet popped, vector(packetBytes)"
vector 245 NetworkModified.host[6].wlan[0].mac.dcf.channelAccess.pendingQueue queueingTime:vector ETV
attr interpolationmode none
attr source queueingTime(packetPopped)
attr title "queueing times, vector"
attr unit s
vector 246 NetworkModified.host[6].wlan[0].mac.dcf.channelAccess.inProgressFrames queueLength:vector ETV
attr interpolationmode sample-hold
attr source "count(packetEnqueued) - count(packetDequeued)"
attr title "queue length, vector"
vector 247 NetworkModified.host[6].wlan[0].mac.dcf frameSequenceActive:vector ETV
attr interpolationmode sample-hold
attr source count(frameSequenceStarted)-count(frameSequenceFinished)
attr title "frame sequence active, vector"
vector 248 NetworkModified.host[7].wlan[0].mac.dcf.channelAccess.pendingQueue packetPopped:vector(packetBytes) ETV
attr interpolationmode none
attr title "packet popped, vector(packetBytes)"
vector 249 NetworkModified.host[7].wlan[0].mac.dcf.channelAccess.pendingQueue queueingTime:vector ETV
attr interpolationmode none
attr source queueingTime(packetPopped)
attr title "queueing times, vector"
attr unit s
vector 250 NetworkModified.host[7].wlan[0].mac.dcf.channelAccess.inProgressFrames queueLength:vector ETV
attr interpolationmode sample-hold
attr source "count(packetEnqueued) - count(packetDequeued)"
attr title "queue length, vector"
vector 251 NetworkModified.host[7].wlan[0].mac.dcf frameSequenceActive:vector ETV
attr interpolationmode sample-hold
attr source count(frameSequenceStarted)-count(frameSequenceFinished)
attr title "frame sequence active, vector"
vector 252 NetworkModified.host[16].wlan[0].mac.dcf packetReceivedFromPeer:vector(packetBytes) ETV
attr interpolationmode none
attr title "packets received, vector(packetBytes)"
vector 253 NetworkModified.host[16].wlan[0].mac.dcf packetReceivedFromPeerUnicast:vector(packetBytes) ETV
attr interpolationmode none
attr source ieee80211Unicast(packetReceivedFromPeer)
attr title "packets received: unicast, vector(packetBytes)"
vector 254 NetworkModified.host[16].wlan[0].mac.dcf packetReceivedFromPeerWithoutRetry:vector(packetBytes) ETV
attr interpolationmode none
attr source ieee80211NotRetry(packetReceivedFromPeer)
attr title "packets received: without retry, vector(packetBytes)"
vector 255 NetworkModified.host[16].wlan[0].mac.dcf datarateSelected:vector ETV
attr interpolationmode none
attr title "datarates selected, vector"
vector 256 NetworkModified.host[16].wlan[0].mac packetSentToUpper:vector(packetBytes) ETV
attr interpolationmode none
attr title "packets sent to upper layer, vector(packetBytes)"
vector 257 NetworkModified.host[16].udp packetReceived:vector(packetBytes) ETV
attr interpolationmode none
attr source packetReceived
attr title "packets received, vector(packetBytes)"
vector 258 NetworkModified.host[16].udp passedUpPk:vector(count) ETV
attr interpolationmode none
attr source packetSentToUpper
attr title "packets passed up, vector(count)"
vector 259 NetworkModified.host[16].app[0] packetReceived:vector(packetBytes) ETV
attr interpolationmode none
attr source packetReceived
attr title "packets received, vector(packetBytes)"
vector 260 NetworkModified.host[16].app[0] endToEndDelay:vector ETV
attr interpolationmode none
attr source dataAge(packetReceived)
attr title "end-to-end delay, vector"
attr unit s
vector 261 NetworkModified.host[16].app[0] rcvdPkSeqNo:vector ETV
attr interpolationmode none
attr source appPkSeqNo(packetReceived)
attr title "received packet sequence number, vector"
vector 262 NetworkModified.host[17].wlan[0].mac packetDropIncorrectlyReceived:vector(packetBytes) ETV
attr interpolationmode none
attr source packetDropReasonIsIncorrectlyReceived(packetDropped)
attr title "packet drops: incorrectly received, vector(packetBytes)"
vector 263 NetworkModified.host[4].wlan[0].mac packetDropIncorrectlyReceived:vector(packetBytes) ETV
attr interpolationmode none
attr source packetDropReasonIsIncorrectlyReceived(packetDropped)
attr title "packet drops: incorrectly received, vector(packetBytes)"
vector 264 NetworkModified.host[8].wlan[0].mac packetDropIncorrectlyReceived:vector(packetBytes) ETV
attr interpolationmode none
attr source packetDropReasonIsIncorrectlyReceived(packetDropped)
attr title "packet drops: incorrectly received, vector(packetBytes)"
vector 265 NetworkModified.host[0].wlan[0].mac packetDropIncorrectlyReceived:vector(packetBytes) ETV
attr interpolationmode none
attr source packetDropReasonIsIncorrectlyReceived(packetDropped)
attr title "packet drops: incorrectly received, vector(packetBytes)"
vector 266 NetworkModified.host[1].wlan[0].mac packetDrop:vector(packetBytes) ETV
attr interpolationmode none
attr source packetDropped
attr title "packet drops, vector(packetBytes)"
vector 267 NetworkModified.host[1].wlan[0].mac packetDropIncorrectlyReceived:vector(packetBytes) ETV
attr interpolationmode none
attr source packetDropReasonIsIncorrectlyReceived(packetDropped)
attr title "packet drops: incorrectly received, vector(packetBytes)"
vector 268 NetworkModified.host[16].wlan[0].mac packetSentToLower:vector(packetBytes) ETV
attr interpolationmode none
attr title "packets sent to lower layer, vector(packetBytes)"
vector 269 NetworkModified.host[16].wlan[0].radio transmissionState:vector ETV
attr interpolationmode sample-hold
attr source transmissionStateChanged
attr title "Radio transmission state, vector"
vector 270 NetworkModified.host[7].wlan[0].mac.rx nav:vector ETV
attr interpolationmode linear
attr source navChanged
attr title "network allocation vector, vector"
vector 271 NetworkModified.host[16].wlan[0].mac.dcf packetSentToPeer:vector(packetBytes) ETV
attr interpolationmode none
attr title "packets sent, vector(packetBytes)"
vector 272 NetworkModified.host[16].wlan[0].mac.dcf packetSentToPeerUnicast:vector(packetBytes) ETV
attr interpolationmode none
attr source ieee80211Unicast(packetSentToPeer)
attr title "packets sent: unicast, vector(packetBytes)"
vector 273 NetworkModified.host[16].wlan[0].mac.dcf packetSentToPeerWithoutRetry:vector(packetBytes) ETV
attr interpolationmode none
attr source ieee80211NotRetry(packetSentToPeer)
attr title "packets sent: without retry, vector(packetBytes)"
vector 274 NetworkModified.host[6].wlan[0].mac.dcf.channelAccess.inProgressFrames queueingTime:vector ETV
attr interpolationmode none
attr source queueingTime(packetDequeued)
attr title "queueing times, vector"
vector 275 NetworkModified.host[2].app[0] packetSent:vector(packetBytes) ETV
attr interpolationmode none
attr source packetSent
attr title "packets sent, vector(packetBytes)"
vector 276 NetworkModified.host[2].udp packetSent:vector(packetBytes) ETV
attr interpolationmode none
attr source packetSent
attr title "packets sent, vector(packetBytes)"
vector 277 NetworkModified.host[2].wlan[0].mac packetReceivedFromUpper:vector(packetBytes) ETV
attr interpolationmode none
attr title "packets received from upper layer, vector(packetBytes)"
vector 278 NetworkModified.host[2].wlan[0].mac.dcf.channelAccess.pendingQueue packetPushed:vector(packetBytes) ETV
attr interpolationmode none
attr title "packet pushed, vector(packetBytes)"
vector 279 NetworkModified.host[2].wlan[0].mac.dcf.channelAccess.pendingQueue queueLength:vector ETV
attr interpolationmode sample-hold
attr source "count(packetPushed) - count(packetPopped) - count(packetRemoved) - count(packetDropped)"
attr title "queue length, vector"
vector 280 NetworkModified.host[2].wlan[0].mac.dcf.channelAccess.contention backoffPeriodGenerated:vector ETV
attr interpolationmode none
attr title "backoff periods, vector"
vector 281 NetworkModified.host[2].wlan[0].mac.dcf.channelAccess.contention backoffActive:vector ETV
attr interpolationmode sample-hold
attr source count(backoffStarted)-count(backoffStopped)
attr title "backoff active, vector"
vector 282 NetworkModified.host[2].wlan[0].mac.dcf.channelAccess.pendingQueue packetPopped:vector(packetBytes) ETV
attr interpolationmode none
attr title "packet popped, vector(packetBytes)"
vector 283 NetworkModified.host[2].wlan[0].mac.dcf.channelAccess.pendingQueue queueingTime:vector ETV
attr interpolationmode none
attr source queueingTime(packetPopped)
attr title "queueing times, vector"
attr unit s
vector 284 NetworkModified.host[2].wlan[0].mac.dcf.channelAccess.inProgressFrames queueLength:vector ETV
attr interpolationmode sample-hold
attr source "count(packetEnqueued) - count(packetDequeued)"
attr title "queue length, vector"
vector 285 NetworkModified.host[2].wlan[0].mac.dcf datarateSelected:vector ETV
attr interpolationmode none
attr title "datarates selected, vector"
vector 286 NetworkModified.host[2].wlan[0].mac packetSentToLower:vector(packetBytes) ETV
attr interpolationmode none
attr title "packets sent to lower layer, vector(packetBytes)"
vector 287 NetworkModified.host[2].wlan[0].mac.dcf frameSequenceActive:vector ETV
attr interpolationmode sample-hold
attr source count(frameSequenceStarted)-count(frameSequenceFinished)
attr title "frame sequence active, vector"
vector 288 NetworkModified.host[2].wlan[0].radio transmissionState:vector ETV
attr interpolationmode sample-hold
attr source transmissionStateChanged
attr title "Radio transmission state, vector"
vector 289 NetworkModified.host[2].wlan[0].mac.dcf packetSentToPeer:vector(packetBytes) ETV
attr interpolationmode none
attr title "packets sent, vector(packetBytes)"
vector 290 NetworkModified.host[2].wlan[0].mac.dcf packetSentToPeerUnicast:vector(packetBytes) ETV
attr interpolationmode none
attr source ieee80211Unicast(packetSentToPeer)
attr title "packets sent: unicast, vector(packetBytes)"
vector 291 NetworkModified.host[2].wlan[0].mac.dcf packetSentToPeerWithoutRetry:vector(packetBytes) ETV
attr interpolationmode none
attr source ieee80211NotRetry(packetSentToPeer)
attr title "packets sent: without retry, vector(packetBytes)"
vector 292 NetworkModified.host[2].wlan[0].mac.rx nav:vector ETV
attr interpolationmode linear
attr source navChanged
attr title "network allocation vector, vector"
vector 293 NetworkModified.host[10].wlan[0].mac packetReceivedFromLower:vector(packetBytes) ETV
attr interpolationmode none
attr title "packets received from lower layer, vector(packetBytes)"
vector 294 NetworkModified.host[10].wlan[0].mac.dcf packetReceivedFromPeer:vector(packetBytes) ETV
attr interpolationmode none
attr title "packets received, vector(packetBytes)"
vector 295 NetworkModified.host[10].wlan[0].mac.dcf packetReceivedFromPeerUnicast:vector(packetBytes) ETV
attr interpolationmode none
attr source ieee80211Unicast(packetReceivedFromPeer)
attr title "packets received: unicast, vector(packetBytes)"
vector 296 NetworkModified.host[10].wlan[0].mac.dcf packetReceivedFromPeerWithoutRetry:vector(packetBytes) ETV
attr interpolationmode none
attr source ieee80211NotRetry(packetReceivedFromPeer)
attr title "packets received: without retry, vector(packetBytes)"
vector 297 NetworkModified.host[10].wlan[0].mac.dcf datarateSelected:vector ETV
attr interpolationmode none
attr title "datarates selected, vector"
vector 298 NetworkModified.host[10].wlan[0].mac packetSentToUpper:vector(packetBytes) ETV
attr interpolationmode none
attr title "packets sent to upper layer, vector(packetBytes)"
vector 299 NetworkModified.host[10].wlan[0].mac packetReceivedFromUpper:vector(packetBytes) ETV
attr interpolationmode none
attr title "packets received from upper layer, vector(packetBytes)"
vector 300 NetworkModified.host[10].wlan[0].mac.dcf.channelAccess.pendingQueue packetPushed:vector(packetBytes) ETV
attr interpolationmode none
attr title "packet pushed, vector(packetBytes)"
vector 301 NetworkModified.host[10].wlan[0].mac.dcf.channelAccess.pendingQueue queueLength:vector ETV
attr interpolationmode sample-hold
attr source "count(packetPushed) - count(packetPopped) - count(packetRemoved) - count(packetDropped)"
attr title "queue length, vector"
vector 302 NetworkModified.host[10].wlan[0].mac.dcf.channelAccess.contention backoffPeriodGenerated:vector ETV
attr interpolationmode none
attr title "backoff periods, vector"
vector 303 NetworkModified.host[10].wlan[0].mac.dcf.channelAccess.contention backoffActive:vector ETV
attr interpolationmode sample-hold
attr source count(backoffStarted)-count(backoffStopped)
attr title "backoff active, vector"
vector 304 NetworkModified.host[11].wlan[0].mac packetReceivedFromLower:vector(packetBytes) ETV
attr interpolationmode none
attr title "packets received from lower layer, vector(packetBytes)"
vector 305 NetworkModified.host[11].wlan[0].mac.rx nav:vector ETV
attr interpolationmode linear
attr source navChanged
attr title "network allocation vector, vector"
vector 306 NetworkModified.host[11].wlan[0].mac.dcf packetDrop:vector(packetBytes) ETV
attr interpolationmode none
attr source packetDropped
attr title "packet drops, vector(packetBytes)"
vector 307 NetworkModified.host[11].wlan[0].mac.dcf packetDropNotAddressedToUs:vector(packetBytes) ETV
attr interpolationmode none
attr source packetDropReasonIsNotAddressedToUs(packetDropped)
attr title "packet drops: not addressed to us, vector(packetBytes)"
vector 308 NetworkModified.host[11].wlan[0].mac packetDrop:vector(packetBytes) ETV
attr interpolationmode none
attr source packetDropped
attr title "packet drops, vector(packetBytes)"
vector 309 NetworkModified.host[11].wlan[0].mac packetDropNotAddressedToUs:vector(packetBytes) ETV
attr interpolationmode none
attr source packetDropReasonIsNotAddressedToUs(packetDropped)
attr title "packet drops: not addressed to us, vector(packetBytes)"
vector 310 NetworkModified.host[18].wlan[0].mac packetReceivedFromLower:vector(packetBytes) ETV
attr interpolationmode none
attr title "packets received from lower layer, vector(packetBytes)"
vector 311 NetworkModified.host[18].wlan[0].mac.rx nav:vector ETV
attr interpolationmode linear
attr source navChanged
attr title "network allocation vector, vector"
vector 312 NetworkModified.host[18].wlan[0].mac.dcf packetDrop:vector(packetBytes) ETV
attr interpolationmode none
attr source packetDropped
attr title "packet drops, vector(packetBytes)"
vector 313 NetworkModified.host[18].wlan[0].mac.dcf packetDropNotAddressedToUs:vector(packetBytes) ETV
attr interpolationmode none
attr source packetDropReasonIsNotAddressedToUs(packetDropped)
attr title "packet drops: not addressed to us, vector(packetBytes)"
vector 314 NetworkModified.host[18].wlan[0].mac packetDrop:vector(packetBytes) ETV
attr interpolationmode none
attr source packetDropped
attr title "packet drops, vector(packetBytes)"
vector 315 NetworkModified.host[18].wlan[0].mac packetDropNotAddressedToUs:vector(packetBytes) ETV
attr interpolationmode none
attr source packetDropReasonIsNotAddressedToUs(packetDropped)
attr title "packet drops: not addressed to us, vector(packetBytes)"
vector 316 NetworkModified.host[15].wlan[0].mac packetReceivedFromLower:vector(packetBytes) ETV
attr interpolationmode none
attr title "packets received from lower layer, vector(packetBytes)"
vector 317 NetworkModified.host[15].wlan[0].mac.rx nav:vector ETV
attr interpolationmode linear
attr source navChanged
attr title "network allocation vector, vector"
vector 318 NetworkModified.host[15].wlan[0].mac.dcf packetDrop:vector(packetBytes) ETV
attr interpolationmode none
attr source packetDropped
attr title "packet drops, vector(packetBytes)"
vector 319 NetworkModified.host[15].wlan[0].mac.dcf packetDropNotAddressedToUs:vector(packetBytes) ETV
attr interpolationmode none
attr source packetDropReasonIsNotAddressedToUs(packetDropped)
attr title "packet drops: not addressed to us, vector(packetBytes)"
vector 320 NetworkModified.host[15].wlan[0].mac packetDrop:vector(packetBytes) ETV
attr interpolationmode none
attr source packetDropped
attr title "packet drops, vector(packetBytes)"
vector 321 NetworkModified.host[15].wlan[0].mac packetDropNotAddressedToUs:vector(packetBytes) ETV
attr interpolationmode none
attr source packetDropReasonIsNotAddressedToUs(packetDropped)
attr title "packet drops: not addressed to us, vector(packetBytes)"
vector 322 NetworkModified.host[3].wlan[0].mac packetReceivedFromLower:vector(packetBytes) ETV
attr interpolationmode none
attr title "packets received from lower layer, vector(packetBytes)"
vector 323 NetworkModified.host[3].wlan[0].mac.rx nav:vector ETV
attr interpolationmode linear
attr source navChanged
attr title "network allocation vector, vector"
vector 324 NetworkModified.host[3].wlan[0].mac.dcf packetDrop:vector(packetBytes) ETV
attr interpolationmode none
attr source packetDropped
attr title "packet drops, vector(packetBytes)"
vector 325 NetworkModified.host[3].wlan[0].mac.dcf packetDropNotAddressedToUs:vector(packetBytes) ETV
attr interpolationmode none
attr source packetDropReasonIsNotAddressedToUs(packetDropped)
attr title "packet drops: not addressed to us, vector(packetBytes)"
vector 326 NetworkModified.host[3].wlan[0].mac packetDrop:vector(packetBytes) ETV
attr interpolationmode none
attr source packetDropped
attr title "packet drops, vector(packetBytes)"
vector 327 NetworkModified.host[3].wlan[0].mac packetDropNotAddressedToUs:vector(packetBytes) ETV
attr interpolationmode none
attr source packetDropReasonIsNotAddressedToUs(packetDropped)
attr title "packet drops: not addressed to us, vector(packetBytes)"
vector 328 NetworkModified.host[10].wlan[0].mac packetSentToLower:vector(packetBytes) ETV
attr interpolationmode none
attr title "packets sent to lower layer, vector(packetBytes)"
vector 329 NetworkModified.host[10].wlan[0].radio transmissionState:vector ETV
attr interpolationmode sample-hold
attr source transmissionStateChanged
attr title "Radio transmission state, vector"
vector 330 NetworkModified.host[10].wlan[0].mac.dcf packetSentToPeer:vector(packetBytes) ETV
attr interpolationmode none
attr title "packets sent, vector(packetBytes)"
vector 331 NetworkModified.host[10].wlan[0].mac.dcf packetSentToPeerUnicast:vector(packetBytes) ETV
attr interpolationmode none
attr source ieee80211Unicast(packetSentToPeer)
attr title "packets sent: unicast, vector(packetBytes)"
vector 332 NetworkModified.host[10].wlan[0].mac.dcf packetSentToPeerWithoutRetry:vector(packetBytes) ETV
attr interpolationmode none
attr source ieee80211NotRetry(packetSentToPeer)
attr title "packets sent: without retry, vector(packetBytes)"
vector 333 NetworkModified.host[2].wlan[0].mac packetReceivedFromLower:vector(packetBytes) ETV
attr interpolationmode none
attr title "packets received from lower layer, vector(packetBytes)"
vector 334 NetworkModified.host[2].wlan[0].mac.dcf packetReceivedFromPeer:vector(packetBytes) ETV
attr interpolationmode none
attr title "packets received, vector(packetBytes)"
vector 335 NetworkModified.host[2].wlan[0].mac.dcf packetReceivedFromPeerUnicast:vector(packetBytes) ETV
attr interpolationmode none
attr source ieee80211Unicast(packetReceivedFromPeer)
attr title "packets received: unicast, vector(packetBytes)"
vector 336 NetworkModified.host[2].wlan[0].mac.dcf packetReceivedFromPeerWithoutRetry:vector(packetBytes) ETV
attr interpolationmode none
attr source ieee80211NotRetry(packetReceivedFromPeer)
attr title "packets received: without retry, vector(packetBytes)"
vector 337 NetworkModified.host[2].wlan[0].mac.dcf.channelAccess.inProgressFrames queueingTime:vector ETV
attr interpolationmode none
attr source queueingTime(packetDequeued)
attr title "queueing times, vector"
vector 338 NetworkModified.host[10].wlan[0].mac.dcf.channelAccess.pendingQueue packetPopped:vector(packetBytes) ETV
attr interpolationmode none
attr title "packet popped, vector(packetBytes)"
vector 339 NetworkModified.host[10].wlan[0].mac.dcf.channelAccess.pendingQueue queueingTime:vector ETV
attr interpolationmode none
attr source queueingTime(packetPopped)
attr title "queueing times, vector"
attr unit s
vector 340 NetworkModified.host[10].wlan[0].mac.dcf.channelAccess.inProgressFrames queueLength:vector ETV
attr interpolationmode sample-hold
attr source "count(packetEnqueued) - count(packetDequeued)"
attr title "queue length, vector"
vector 341 NetworkModified.host[10].wlan[0].mac.dcf frameSequenceActive:vector ETV
attr interpolationmode sample-hold
attr source count(frameSequenceStarted)-count(frameSequenceFinished)
attr title "frame sequence active, vector"
vector 342 NetworkModified.host[10].wlan[0].mac.rx nav:vector ETV
attr interpolationmode linear
attr source navChanged
attr title "network allocation vector, vector"
vector 343 NetworkModified.host[2].wlan[0].mac.dcf packetDrop:vector(packetBytes) ETV
attr interpolationmode none
attr source packetDropped
attr title "packet drops, vector(packetBytes)"
vector 344 NetworkModified.host[2].wlan[0].mac.dcf packetDropNotAddressedToUs:vector(packetBytes) ETV
attr interpolationmode none
attr source packetDropReasonIsNotAddressedToUs(packetDropped)
attr title "packet drops: not addressed to us, vector(packetBytes)"
vector 345 NetworkModified.host[2].wlan[0].mac packetDrop:vector(packetBytes) ETV
attr interpolationmode none
attr source packetDropped
attr title "packet drops, vector(packetBytes)"
vector 346 NetworkModified.host[2].wlan[0].mac packetDropNotAddressedToUs:vector(packetBytes) ETV
attr interpolationmode none
attr source packetDropReasonIsNotAddressedToUs(packetDropped)
attr title "packet drops: not addressed to us, vector(packetBytes)"
vector 347 NetworkModified.host[11].wlan[0].mac.dcf packetReceivedFromPeer:vector(packetBytes) ETV
attr interpolationmode none
attr title "packets received, vector(packetBytes)"
vector 348 NetworkModified.host[11].wlan[0].mac.dcf packetReceivedFromPeerUnicast:vector(packetBytes) ETV
attr interpolationmode none
attr source ieee80211Unicast(packetReceivedFromPeer)
attr title "packets received: unicast, vector(packetBytes)"
vector 349 NetworkModified.host[11].wlan[0].mac.dcf packetReceivedFromPeerWithoutRetry:vector(packetBytes) ETV
attr interpolationmode none
attr source ieee80211NotRetry(packetReceivedFromPeer)
attr title "packets received: without retry, vector(packetBytes)"
vector 350 NetworkModified.host[11].wlan[0].mac.dcf datarateSelected:vector ETV
attr interpolationmode none
attr title "datarates selected, vector"
vector 351 NetworkModified.host[11].wlan[0].mac packetSentToUpper:vector(packetBytes) ETV
attr interpolationmode none
attr title "packets sent to upper layer, vector(packetBytes)"
vector 352 NetworkModified.host[11].wlan[0].mac packetReceivedFromUpper:vector(packetBytes) ETV
attr interpolationmode none
attr title "packets received from upper layer, vector(packetBytes)"
vector 353 NetworkModified.host[11].wlan[0].mac.dcf.channelAccess.pendingQueue packetPushed:vector(packetBytes) ETV
attr interpolationmode none
attr title "packet pushed, vector(packetBytes)"
vector 354 NetworkModified.host[11].wlan[0].mac.dcf.channelAccess.pendingQueue queueLength:vector ETV
attr interpolationmode sample-hold
attr source "count(packetPushed) - count(packetPopped) - count(packetRemoved) - count(packetDropped)"
attr title "queue length, vector"
vector 355 NetworkModified.host[11].wlan[0].mac.dcf.channelAccess.contention backoffPeriodGenerated:vector ETV
attr interpolationmode none
attr title "backoff periods, vector"
vector 356 NetworkModified.host[11].wlan[0].mac.dcf.channelAccess.contention backoffActive:vector ETV
attr interpolationmode sample-hold
attr source count(backoffStarted)-count(backoffStopped)
attr title "backoff active, vector"
vector 357 NetworkModified.host[12].wlan[0].mac packetReceivedFromLower:vector(packetBytes) ETV
attr interpolationmode none
attr title "packets received from lower layer, vector(packetBytes)"
vector 358 NetworkModified.host[12].wlan[0].mac.rx nav:vector ETV
attr interpolationmode linear
attr source navChanged
attr title "network allocation vector, vector"
vector 359 NetworkModified.host[12].wlan[0].mac.dcf packetDrop:vector(packetBytes) ETV
attr interpolationmode none
attr source packetDropped
attr title "packet drops, vector(packetBytes)"
vector 360 NetworkModified.host[12].wlan[0].mac.dcf packetDropNotAddressedToUs:vector(packetBytes) ETV
attr interpolationmode none
attr source packetDropReasonIsNotAddressedToUs(packetDropped)
attr title "packet drops: not addressed to us, vector(packetBytes)"
vector 361 NetworkModified.host[12].wlan[0].mac packetDrop:vector(packetBytes) ETV
attr interpolationmode none
attr source packetDropped
attr title "packet drops, vector(packetBytes)"
vector 362 NetworkModified.host[12].wlan[0].mac packetDropNotAddressedToUs:vector(packetBytes) ETV
attr interpolationmode none
attr source packetDropReasonIsNotAddressedToUs(packetDropped)
attr title "packet drops: not addressed to us, vector(packetBytes)"
vector 363 NetworkModified.host[11].wlan[0].mac packetSentToLower:vector(packetBytes) ETV
attr interpolationmode none
attr title "packets sent to lower layer, vector(packetBytes)"
vector 364 NetworkModified.host[11].wlan[0].radio transmissionState:vector ETV
attr interpolationmode sample-hold
attr source transmissionStateChanged
attr title "Radio transmission state, vector"
vector 365 NetworkModified.host[11].wlan[0].mac.dcf packetSentToPeer:vector(packetBytes) ETV
attr interpolationmode none
attr title "packets sent, vector(packetBytes)"
vector 366 NetworkModified.host[11].wlan[0].mac.dcf packetSentToPeerUnicast:vector(packetBytes) ETV
attr interpolationmode none
attr source ieee80211Unicast(packetSentToPeer)
attr title "packets sent: unicast, vector(packetBytes)"
vector 367 NetworkModified.host[11].wlan[0].mac.dcf packetSentToPeerWithoutRetry:vector(packetBytes) ETV
attr interpolationmode none
attr source ieee80211NotRetry(packetSentToPeer)
attr title "packets sent: without retry, vector(packetBytes)"
vector 368 NetworkModified.host[10].wlan[0].mac.dcf.channelAccess.inProgressFrames queueingTime:vector ETV
attr interpolationmode none
attr source queueingTime(packetDequeued)
attr title "queueing times, vector"
vector 369 NetworkModified.host[19].wlan[0].mac packetReceivedFromLower:vector(packetBytes) ETV
attr interpolationmode none
attr title "packets received from lower layer, vector(packetBytes)"
vector 370 NetworkModified.host[19].wlan[0].mac.dcf packetDrop:vector(packetBytes) ETV
attr interpolationmode none
attr source packetDropped
attr title "packet drops, vector(packetBytes)"
vector 371 NetworkModified.host[19].wlan[0].mac.dcf packetDropNotAddressedToUs:vector(packetBytes) ETV
attr interpolationmode none
[...]
397	351052 259 938 8327 0.007963960362 0.088550027074 10 0 1 5 5
398	351311 139 961 7580 0.008036512876 0.086436368517 5 162 162 810 131220
399	351450 169 961 7580 0.008036512876 0.086436368517 5 9.4e-05 0.000309788928 0.001065788928 2.5435317991139e-07
400	351619 259 961 7665 0.008036512876 0.086562435229 10 0 1 5 5
401	351878 259 961 7665 0.008036512876 0.086562435229 10 0 1 5 5
402	352137 632 987 8391 0.008045993718 0.088722060431 23 14 162 2098 317084
403	352769 632 987 8391 0.008045993718 0.088722060431 23 14 162 2098 317084
404	353401 632 987 8391 0.008045993718 0.088722060431 23 14 162 2098 317084
405	354033 632 987 8391 0.008045993718 0.088722060431 23 14 162 2098 317084
406	354665 270 988 8437 0.008045993718 0.08876606043 10 14 162 880 132200
407	354935 270 988 8437 0.008045993718 0.08876606043 10 14 162 880 132200
408	355205 270 988 8437 0.008045993718 0.08876606043 10 14 162 880 132200
409	355475 329 988 8353 0.008045993718 0.088639993718 10 24000000 24000000 240000000 5.76e+15
410	355804 139 988 8271 0.008045993718 0.088505993718 5 134 134 670 89780
411	355943 139 992 8275 0.008045993718 0.088505993718 5 134 134 670 89780
412	356082 139 992 8275 0.008045993718 0.088505993718 5 162 162 810 131220
413	356221 259 992 8353 0.008045993718 0.088639993718 10 0 1 5 5
414	356480 131 992 8275 0.008045993718 0.088505993718 5 2 31 55 1193
415	356611 571 992 8352 0.008045993718 0.088639993718 22 0 1 11 11
416	357182 1512 1000 8434 0.008046034949 0.088766040891 54 0 4.4e-05 0.000792 3.4848e-08
417	358694 1180 1002 8392 0.008046060431 0.088722060431 43 14 162 3414 503340
418	359874 1512 1002 8440 0.008046060431 0.088766060431 54 0 4.4e-05 0.000792 3.4848e-08
419	361386 905 1002 8392 0.008046060431 0.088722060431 33 14 162 2534 371140
420	362291 905 1002 8392 0.008046060431 0.088722060431 33 14 162 2534 371140
421	363196 960 1002 8392 0.008046060431 0.088722060431 35 14 162 2710 397580
422	364156 905 1002 8392 0.008046060431 0.088722060431 33 14 162 2534 371140
423	365061 275 1016 8353 0.008055993718 0.088639993718 10 14 162 880 132200
424	365336 1040 1017 8376 0.008055993718 0.088721993718 40 0 2 40 60
425	366376 275 1040 8375 0.008089993718 0.088721993718 10 14 162 880 132200
426	366651 275 1040 8375 0.008089993718 0.088721993718 10 14 162 880 132200
427	366926 275 1040 8375 0.008089993718 0.088721993718 10 14 162 880 132200
428	367201 195 1047 8327 0.008090027074 0.088550027074 5 0.000126066712 0.000126066712 0.00063033356 7.9464079372455e-08
429	367396 739 1079 8122 0.008118546232 0.08735068201 27 14 162 2302 343916
430	368135 739 1079 8122 0.008118546232 0.08735068201 27 14 162 2302 343916
431	368874 739 1079 8122 0.008118546232 0.08735068201 27 14 162 2302 343916
432	369613 739 1079 8122 0.008118546232 0.08735068201 27 14 162 2302 343916
433	370352 273 1080 7775 0.008118546232 0.086878468585 10 14 162 880 132200
434	370625 273 1080 7775 0.008118546232 0.086878468585 10 14 162 880 132200
435	370898 273 1080 7775 0.008118546232 0.086878468585 10 14 162 880 132200
436	371171 328 1080 7690 0.008118546232 0.086752401873 10 24000000 24000000 240000000 5.76e+15
437	371499 139 1080 7607 0.008118546232 0.086518401873 5 134 134 670 89780
438	371638 139 1084 7611 0.008118546232 0.086518401873 5 134 134 670 89780
439	371777 139 1084 7611 0.008118546232 0.086518401873 5 162 162 810 131220
440	371916 258 1084 7690 0.008118546232 0.086752401873 10 0 1 5 5
441	372174 132 1084 7611 0.008118546232 0.086518401873 5 7 19 63 895
442	372306 568 1084 7689 0.008118546232 0.086752401873 22 0 1 11 11
443	372874 273 1106 7690 0.008128546232 0.086752401873 10 14 162 880 132200
444	373147 1032 1107 7713 0.008128546232 0.086834401873 40 0 2 40 60
445	374179 273 1130 7712 0.008162546232 0.086834401873 10 14 162 880 132200
446	374452 273 1130 7712 0.008162546232 0.086834401873 10 14 162 880 132200
447	374725 273 1130 7712 0.008162546232 0.086834401873 10 14 162 880 132200
448	374998 247 1138 7665 0.008162579588 0.086562435229 9 14 162 718 105956
449	375245 195 1138 7665 0.008162579588 0.086562435229 5 0.000126066712 0.000126066712 0.00063033356 7.9464079372455e-08
450	375440 140 1163 8353 0.008419993718 0.088639993718 5 162 162 810 131220
451	375580 171 1163 8353 0.008419993718 0.088639993718 5 0.000134 0.000848797148 0.001704797148 9.3884059845293e-07
452	375751 256 1163 8437 0.008419993718 0.08876606043 10 0 1 5 5
453	376007 256 1163 8437 0.008419993718 0.08876606043 10 0 1 5 5
454	376263 140 1185 8261 0.008442657441 0.088442657441 5 100 100 500 50000
455	376403 140 1187 8262 0.008442657441 0.088442657441 5 108 108 540 58320
456	376543 140 1190 8265 0.008442657441 0.088442657441 5 134 134 670 89780
457	376683 140 1190 8265 0.008442657441 0.088442657441 5 162 162 810 131220
458	376823 256 1190 8463 0.008442657441 0.089180097894 10 0 1 5 5
459	377079 135 1190 8265 0.008442657441 0.088442657441 5 14 30 121 3089
460	377214 139 1192 7690 0.008492546232 0.086752401873 5 162 162 810 131220
461	377353 170 1192 7690 0.008492546232 0.086752401873 5 0.000234 0.000474 0.001906113886 7.5954195493002e-07
462	377523 258 1192 7775 0.008492546232 0.086878468585 10 0 1 5 5
463	377781 258 1192 7775 0.008492546232 0.086878468585 10 0 1 5 5
464	378039 140 1221 8382 0.008502027074 0.088722027074 5 162 162 810 131220
465	378179 140 1221 8382 0.008502027074 0.088722027074 5 162 162 810 131220
466	378319 140 1221 8382 0.008502027074 0.088722027074 5 162 162 810 131220
467	378459 165 1221 8382 0.008502027074 0.088722027074 5 24000000 24000000 120000000 2.88e+15
468	378624 140 1221 8382 0.008502027074 0.088722027074 5 134 134 670 89780
469	378764 140 1224 8385 0.008502027074 0.088722027074 5 108 108 540 58320
470	378904 130 1224 8385 0.008502027074 0.088722027074 5 1 5 15 55
471	379034 140 1225 8386 0.008502027074 0.088722027074 5 100 100 500 50000
472	379174 195 1225 8386 0.008502027074 0.088722027074 5 0.001210133424 0.002264930572 0.007705464268 1.2598962220308e-05
473	379369 130 1225 8386 0.008502027074 0.088722027074 5 0 4 10 30
474	379499 400 1233 8462 0.0085020992 0.089180097894 16 0 1 8 8
475	379899 135 1245 8407 0.008512027074 0.088732027074 5 14 14 70 980
476	380034 520 1246 8433 0.008512027074 0.088766027074 20 0 2 20 30
477	380554 135 1270 8432 0.008546027074 0.088766027074 5 14 14 70 980
478	380689 135 1270 8432 0.008546027074 0.088766027074 5 14 14 70 980
479	380824 135 1270 8432 0.008546027074 0.088766027074 5 14 14 70 980
480	380959 191 1275 8437 0.00854606043 0.08876606043 5 0.000126066712 0.000126066712 0.00063033356 7.9464079372455e-08
481	381150 140 1307 7719 0.008574579588 0.086834435229 5 162 162 810 131220
482	381290 140 1307 7719 0.008574579588 0.086834435229 5 162 162 810 131220
483	381430 140 1307 7719 0.008574579588 0.086834435229 5 162 162 810 131220
484	381570 165 1307 7719 0.008574579588 0.086834435229 5 24000000 24000000 120000000 2.88e+15
485	381735 140 1307 7719 0.008574579588 0.086834435229 5 134 134 670 89780
486	381875 140 1310 7722 0.008574579588 0.086834435229 5 108 108 540 58320
487	382015 130 1310 7722 0.008574579588 0.086834435229 5 1 5 15 55
488	382145 140 1311 7723 0.008574579588 0.086834435229 5 100 100 500 50000
489	382285 194 1311 7723 0.008574579588 0.086834435229 5 0.000905989065 0.002646133424 0.007486281215 1.3308492069243e-05
490	382479 130 1311 7723 0.008574579588 0.086834435229 5 0 4 10 30
491	382609 135 1334 7745 0.008584579588 0.086844435229 5 14 14 70 980
492	382744 520 1335 7771 0.008584579588 0.086878435229 20 0 2 20 30
493	383264 135 1359 7770 0.008618579588 0.086878435229 5 14 14 70 980
494	383399 135 1359 7770 0.008618579588 0.086878435229 5 14 14 70 980
495	383534 135 1359 7770 0.008618579588 0.086878435229 5 14 14 70 980
496	383669 194 1364 7775 0.008618612944 0.086878468585 5 0.000126066712 0.000126066712 0.00063033356 7.9464079372455e-08
497	383863 136 1391 8463 0.0088760992 0.089180097894 5 162 162 810 131220
498	383999 165 1391 8463 0.0088760992 0.089180097894 5 0 0.000737440453 0.001884323971 1.2406893236509e-06
499	384164 230 1391 8463 0.0088760992 0.089180097894 9 0 1 5 5
500	384394 161 1391 8463 0.0088760992 0.089180097894 5 24000000 24000000 120000000 2.88e+15
501	384555 136 1391 8463 0.0088760992 0.089180097894 5 162 162 810 131220
502	384691 230 1391 8463 0.0088760992 0.089180097894 9 0 1 5 5
503	384921 504 1392 8486 0.0088760992 0.089262097894 20 0 2 20 30
504	385425 136 1413 8485 0.0089580992 0.089262097894 5 162 162 810 131220
505	385561 136 1413 8485 0.0089580992 0.089262097894 5 162 162 810 131220
506	385697 136 1413 8485 0.0089580992 0.089262097894 5 162 162 810 131220
507	385833 743 1416 8488 0.008958132556 0.08926213125 27 14 162 2598 396012
508	386576 247 1416 8488 0.008958132556 0.08926213125 9 14 162 866 132004
509	386823 247 1416 8488 0.008958132556 0.08926213125 9 14 162 866 132004
510	387070 247 1416 8488 0.008958132556 0.08926213125 9 14 162 866 132004
511	387317 296 1416 8488 0.008958132556 0.08926213125 9 24000000 24000000 216000000 5.184e+15
512	387613 139 1416 8488 0.008958132556 0.08926213125 5 134 134 670 89780
513	387752 112 1420 6724 0.008958132556 0.068524690797 4 134 134 536 71824
514	387864 112 1420 6724 0.008958132556 0.068524690797 4 162 162 648 104976
515	387976 208 1420 6798 0.008958132556 0.068798690797 8 0 1 4 4
516	388184 106 1420 6724 0.008958132556 0.068524690797 4 3 24 51 891
517	388290 416 1420 6797 0.008958132556 0.068798690797 16 0 1 8 8
518	388706 220 1442 6798 0.008968132556 0.068798690797 8 14 162 704 105760
519	388926 832 1443 6821 0.008968132556 0.068880690797 32 0 2 32 48
520	389758 220 1465 6820 0.009002132556 0.068880690797 8 14 162 704 105760
521	389978 220 1465 6820 0.009002132556 0.068880690797 8 14 162 704 105760
522	390198 220 1465 6820 0.009002132556 0.068880690797 8 14 162 704 105760
523	390418 108 1470 6773 0.009002165912 0.068568724153 4 14 14 56 784
524	390526 108 1470 6773 0.009002165912 0.068568724153 4 14 14 56 784
525	390634 108 1470 6773 0.009002165912 0.068568724153 4 14 14 56 784
526	390742 156 1470 6773 0.009002165912 0.068568724153 4 0.000126066712 0.000126066712 0.000504266848 6.3571263497964e-08
527	390898 112 1497 6798 0.009112132556 0.068798690797 4 162 162 648 104976
528	391010 132 1497 6798 0.009112132556 0.068798690797 4 0.000154 0.000574 0.001396 5.83504e-07
529	391142 208 1497 6877 0.009112132556 0.068924757509 8 0 1 4 4
530	391350 208 1497 6877 0.009112132556 0.068924757509 8 0 1 4 4
531	391558 1176 1519 8445 0.009194132556 0.088766093787 42 0 4.4e-05 0.000616 2.7104e-08
532	392734 220 1524 6988 0.009194165912 0.069560790865 8 14 162 704 105760
533	392954 220 1524 6988 0.009194165912 0.069560790865 8 14 162 704 105760
534	393174 220 1524 6988 0.009194165912 0.069560790865 8 14 162 704 105760
535	393394 264 1524 6904 0.009194165912 0.069434724153 8 24000000 24000000 192000000 4.608e+15
536	393658 112 1524 6825 0.009194165912 0.068880724153 4 134 134 536 71824
537	393770 112 1528 6829 0.009194165912 0.068880724153 4 134 134 536 71824
538	393882 112 1528 6829 0.009194165912 0.068880724153 4 162 162 648 104976
539	393994 208 1528 6904 0.009194165912 0.069434724153 8 0 1 4 4
540	394202 108 1528 6829 0.009194165912 0.068880724153 4 19 31 95 2335
541	394310 520 1528 6903 0.009194165912 0.069434724153 20 0 1 10 10
542	394830 220 1548 6904 0.009204165912 0.069434724153 8 14 162 704 105760
543	395050 832 1549 6927 0.009204165912 0.069516724153 32 0 2 32 48
544	395882 220 1572 6926 0.009238165912 0.069516724153 8 14 162 704 105760
545	396102 220 1572 6926 0.009238165912 0.069516724153 8 14 162 704 105760
546	396322 220 1572 6926 0.009238165912 0.069516724153 8 14 162 704 105760
547	396542 156 1576 6877 0.009238199268 0.068924757509 4 0.000126066712 0.000126066712 0.000504266848 6.3571263497964e-08
548	396698 112 1603 6904 0.009908165912 0.069434724153 4 162 162 648 104976
549	396810 138 1603 6904 0.009908165912 0.069434724153 4 0.000534 0.000714 0.002452174656 1.5245950833047e-06
550	396948 208 1603 6988 0.009908165912 0.069560790865 8 0 1 4 4
551	397156 208 1603 6988 0.009908165912 0.069560790865 8 0 1 4 4
552	397364 496 1629 8395 0.009990199268 0.088722093787 18 14 162 1732 264008
553	397860 496 1629 8395 0.009990199268 0.088722093787 18 14 162 1732 264008
554	398356 496 1629 8395 0.009990199268 0.088722093787 18 14 162 1732 264008
555	398852 496 1629 8395 0.009990199268 0.088722093787 18 14 162 1732 264008
556	399348 218 1630 7097 0.009990199268 0.069996824221 8 14 162 704 105760
557	399566 218 1630 7097 0.009990199268 0.069996824221 8 14 162 704 105760
558	399784 218 1630 7097 0.009990199268 0.069996824221 8 14 162 704 105760
559	400002 264 1630 7013 0.009990199268 0.069870757509 8 24000000 24000000 192000000 4.608e+15
560	400266 112 1630 6931 0.009990199268 0.069516757509 4 134 134 536 71824
561	400378 112 1634 6935 0.009990199268 0.069516757509 4 134 134 536 71824
562	400490 112 1634 6935 0.009990199268 0.069516757509 4 162 162 648 104976
563	400602 208 1634 7013 0.009990199268 0.069870757509 8 0 1 4 4
564	400810 107 1634 6935 0.009990199268 0.069516757509 4 2 30 59 1269
565	400917 416 1634 7012 0.009990199268 0.069870757509 16 0 1 8 8
566	401333 220 1656 7013 0.010000199268 0.069870757509 8 14 162 704 105760
567	401553 832 1657 7036 0.010000199268 0.069952757509 32 0 2 32 48
568	402385 220 1680 7035 0.010034199268 0.069952757509 8 14 162 704 105760
569	402605 220 1680 7035 0.010034199268 0.069952757509 8 14 162 704 105760
570	402825 220 1680 7035 0.010034199268 0.069952757509 8 14 162 704 105760
571	403045 156 1688 6988 0.010034232624 0.069560790865 4 0.000126066712 0.000126066712 0.000504266848 6.3571263497964e-08
572	403201 112 1713 7013 0.010124199268 0.069870757509 4 162 162 648 104976
573	403313 132 1713 7013 0.010124199268 0.069870757509 4 0.000134 0.000694 0.001556 7.64784e-07
574	403445 206 1713 7097 0.010124199268 0.069996824221 8 0 1 4 4
575	403651 206 1713 7097 0.010124199268 0.069996824221 8 0 1 4 4
576	403857 112 1742 7042 0.010206232624 0.069952790865 4 162 162 648 104976
577	403969 112 1742 7042 0.010206232624 0.069952790865 4 162 162 648 104976
578	404081 112 1742 7042 0.010206232624 0.069952790865 4 162 162 648 104976
579	404193 132 1742 7042 0.010206232624 0.069952790865 4 24000000 24000000 96000000 2.304e+15
580	404325 112 1742 7042 0.010206232624 0.069952790865 4 134 134 536 71824
581	404437 112 1745 7045 0.010206232624 0.069952790865 4 108 108 432 46656
582	404549 104 1745 7045 0.010206232624 0.069952790865 4 1 4 10 30
583	404653 112 1746 7046 0.010206232624 0.069952790865 4 100 100 400 40000
584	404765 155 1746 7046 0.010206232624 0.069952790865 4 0.001510133424 0.002663575183 0.00786359187 1.6195995958942e-05
585	404920 104 1746 7046 0.010206232624 0.069952790865 4 0 3 6 14
586	405024 108 1768 7067 0.010216232624 0.069962790865 4 14 14 56 784
587	405132 416 1769 7093 0.010216232624 0.069996790865 16 0 2 16 24
588	405548 108 1793 7092 0.010250232624 0.069996790865 4 14 14 56 784
589	405656 108 1793 7092 0.010250232624 0.069996790865 4 14 14 56 784
590	405764 108 1793 7092 0.010250232624 0.069996790865 4 14 14 56 784
591	405872 154 1798 7097 0.01025026598 0.069996824221 4 0.000126066712 0.000126066712 0.000504266848 6.3571263497964e-08
592	406026 55 3005 3082 0.028486034949 0.028530040891 2 14 162 176 26440
593	406081 55 3007 3086 0.028486060431 0.028530060431 2 14 162 176 26440
594	406136 27 3079 3079 0.028530027074 0.028530027074 1 14 14 14 196
595	406163 110 3836 7404 0.046054579589 0.086066235092 4 14 162 352 52880
596	406273 83 3863 5880 0.046126242966 0.066406593405 3 14 162 338 52684
vector 597 NetworkModified.host[0].app[0] throughput:vector ETV
attr source throughput(packetReceived)
attr title "throughput, vector"
attr unit bps
vector 598 NetworkModified.host[1].app[0] throughput:vector ETV
attr source throughput(packetReceived)
attr title "throughput, vector"
attr unit bps
vector 599 NetworkModified.host[2].app[0] throughput:vector ETV
attr source throughput(packetReceived)
attr title "throughput, vector"
attr unit bps
vector 600 NetworkModified.host[3].app[0] throughput:vector ETV
attr source throughput(packetReceived)
attr title "throughput, vector"
attr unit bps
vector 601 NetworkModified.host[4].app[0] throughput:vector ETV
attr source throughput(packetReceived)
attr title "throughput, vector"
attr unit bps
vector 602 NetworkModified.host[5].app[0] throughput:vector ETV
attr source throughput(packetReceived)
attr title "throughput, vector"
attr unit bps
vector 603 NetworkModified.host[6].app[0] throughput:vector ETV
attr source throughput(packetReceived)
attr title "throughput, vector"
attr unit bps
vector 604 NetworkModified.host[7].app[0] throughput:vector ETV
attr source throughput(packetReceived)
attr title "throughput, vector"
attr unit bps
vector 605 NetworkModified.host[8].app[0] throughput:vector ETV
attr source throughput(packetReceived)
attr title "throughput, vector"
attr unit bps
vector 606 NetworkModified.host[9].app[0] throughput:vector ETV
attr source throughput(packetReceived)
attr title "throughput, vector"
attr unit bps
vector 607 NetworkModified.host[10].app[0] throughput:vector ETV
attr source throughput(packetReceived)
attr title "throughput, vector"
attr unit bps
vector 608 NetworkModified.host[11].app[0] throughput:vector ETV
attr source throughput(packetReceived)
attr title "throughput, vector"
attr unit bps
vector 609 NetworkModified.host[12].app[0] throughput:vector ETV
attr source throughput(packetReceived)
attr title "throughput, vector"
attr unit bps
vector 610 NetworkModified.host[13].app[0] throughput:vector ETV
attr source throughput(packetReceived)
attr title "throughput, vector"
attr unit bps
vector 611 NetworkModified.host[14].app[0] throughput:vector ETV
attr source throughput(packetReceived)
attr title "throughput, vector"
attr unit bps
vector 612 NetworkModified.host[15].app[0] throughput:vector ETV
attr source throughput(packetReceived)
attr title "throughput, vector"
attr unit bps
vector 613 NetworkModified.host[16].app[0] throughput:vector ETV
attr source throughput(packetReceived)
attr title "throughput, vector"
attr unit bps
vector 614 NetworkModified.host[17].app[0] throughput:vector ETV
attr source throughput(packetReceived)
attr title "throughput, vector"
attr unit bps
vector 615 NetworkModified.host[18].app[0] throughput:vector ETV
attr source throughput(packetReceived)
attr title "throughput, vector"
attr unit bps
vector 616 NetworkModified.host[19].app[0] throughput:vector ETV
attr source throughput(packetReceived)
attr title "throughput, vector"
attr unit bps
597	409346 25 8490 8490 0.08926213125 0.08926213125 1 0 0 0 0
598	409371 25 8490 8490 0.08926213125 0.08926213125 1 0 0 0 0
599	409396 25 8490 8490 0.08926213125 0.08926213125 1 0 0 0 0
600	409421 25 8490 8490 0.08926213125 0.08926213125 1 0 0 0 0
601	409446 25 8490 8490 0.08926213125 0.08926213125 1 0 0 0 0
602	409471 25 8490 8490 0.08926213125 0.08926213125 1 0 0 0 0
603	409496 25 8490 8490 0.08926213125 0.08926213125 1 0 0 0 0
604	409521 25 8490 8490 0.08926213125 0.08926213125 1 0 0 0 0
605	409546 25 8490 8490 0.08926213125 0.08926213125 1 0 0 0 0
606	409571 25 8490 8490 0.08926213125 0.08926213125 1 0 0 0 0
607	409596 25 8490 8490 0.08926213125 0.08926213125 1 0 0 0 0
608	409621 25 8490 8490 0.08926213125 0.08926213125 1 0 0 0 0
609	409646 25 8490 8490 0.08926213125 0.08926213125 1 0 0 0 0
610	409671 25 8490 8490 0.08926213125 0.08926213125 1 0 0 0 0
611	409696 25 8490 8490 0.08926213125 0.08926213125 1 0 0 0 0
612	409721 25 8490 8490 0.08926213125 0.08926213125 1 0 0 0 0
613	409746 39 8490 8490 0.08926213125 0.08926213125 1 44811.836150282 44811.836150282 44811.836150282 2008100659.1598
614	409785 39 8490 8490 0.08926213125 0.08926213125 1 44811.836150282 44811.836150282 44811.836150282 2008100659.1598
615	409824 39 8490 8490 0.08926213125 0.08926213125 1 44811.836150282 44811.836150282 44811.836150282 2008100659.1598
616	409863 39 8490 8490 0.08926213125 0.08926213125 1 35849.468920226 35849.468920226 35849.468920226 1285184421.8622

