version 2
run Static-0-20200522-11:51:03-12282
attr configname Static
attr datetime 20200522-11:51:03
attr experiment Static
attr inifile omnetpp.ini
attr iterationvars ""
attr iterationvarsf ""
attr measurement ""
attr network NetworkModified
attr processid 12282
attr repetition 0
attr replication #0
attr resultdir results
attr runnumber 0
attr seedset 0
param **.host[*].mobility.typename "\"StationaryMobility\""
param **.host[*].mobility.initFromDisplayString false
param **.networkConfigurator.typename "\"NextHopNetworkConfigurator\""
param *.host[*].wlan[2].radio.displayCommunicationRange true
param *.visualizer.sceneVisualizer.descriptionFigure "\"title\""
param *.visualizer.mediumVisualizer.displaySignals true
param *.visualizer.physicalLinkVisualizer.displayLinks true
param *.host[*].wlan[0].radio.transmitter.communicationRange 200m
param *.host[*].wlan[0].radio.displayCommunicationRange true
param **.host[*].mobility.initialZ 0m
param **.host[0].mobility.initialX 100m
param **.host[0].mobility.initialY 100m
param **.host[1].mobility.initialX 200m
param **.host[1].mobility.initialY 100m
param **.host[2].mobility.initialX 300m
param **.host[2].mobility.initialY 100m
param **.host[3].mobility.initialX 400m
param **.host[3].mobility.initialY 100m
param **.host[4].mobility.initialX 500m
param **.host[4].mobility.initialY 100m
param **.constraintAreaMaxX 500m
param **.constraintAreaMaxY 500m
param **.constraintAreaMaxZ 0m
param **.constraintAreaMinX 0m
param **.constraintAreaMinY 0m
param **.constraintAreaMinZ 0m
param **.number 5
param **.networkConfiguratorModule "\"networkConfigurator\""
param **.networkConfigurator.config "xmldoc(\"lessnodes.xml\")"
param **.host[*].hasIpv4 false
param **.host[*].hasIpv6 false
param **.host[*].hasGn true
param **.host[*].generic.typename "\"NextHopNetworkLayer\""
param **.host[*].generic.nextHop.hopLimit 4
param **.numApps 1
param **.radioMedium.pathLoss.typename "\"LogNormalShadowing\""
param **.radioMedium.pathLoss.alpha 3
param **.radioMedium.pathLoss.sigma 7
param **.host[1..4].app[0].typename "\"UdpSink\""
param **.host[1..4].app[0].localPort 7654
param **.host[0].app[0].typename "\"UdpBasicApp\""
param **.host[0].app[0].destPort 7654
param **.host[0].app[0].destAddresses "\"host[4]\""
param **.host[0].app[0].messageLength 100B
param **.host[0].app[0].startTime "uniform(0s, 10ms)"
param **.host[0].app[0].sendInterval 20ms
param **.host[0].app[0].packetName "\"CustomData\""
param **.host[0].generic.nextHop.nextHopParam "\"host[1]\""
param **.host[1].generic.nextHop.nextHopParam "\"host[2]\""
param **.host[2].generic.nextHop.nextHopParam "\"host[3]\""
param **.host[3].generic.nextHop.nextHopParam "\"host[4]\""

vector 0 NetworkModified.host[0].wlan[0].radio radioMode:vector ETV
attr interpolationmode sample-hold
attr source radioModeChanged
attr title "Radio mode, vector"
vector 1 NetworkModified.host[0].wlan[0].radio radioChannel:vector ETV
attr interpolationmode sample-hold
attr source radioChannelChanged
attr title "Radio channel, vector"
vector 2 NetworkModified.host[1].wlan[0].radio radioMode:vector ETV
attr interpolationmode sample-hold
attr source radioModeChanged
attr title "Radio mode, vector"
vector 3 NetworkModified.host[1].wlan[0].radio radioChannel:vector ETV
attr interpolationmode sample-hold
attr source radioChannelChanged
attr title "Radio channel, vector"
vector 4 NetworkModified.host[2].wlan[0].radio radioMode:vector ETV
attr interpolationmode sample-hold
attr source radioModeChanged
attr title "Radio mode, vector"
vector 5 NetworkModified.host[2].wlan[0].radio radioChannel:vector ETV
attr interpolationmode sample-hold
attr source radioChannelChanged
attr title "Radio channel, vector"
vector 6 NetworkModified.host[3].wlan[0].radio radioMode:vector ETV
attr interpolationmode sample-hold
attr source radioModeChanged
attr title "Radio mode, vector"
vector 7 NetworkModified.host[3].wlan[0].radio radioChannel:vector ETV
attr interpolationmode sample-hold
attr source radioChannelChanged
attr title "Radio channel, vector"
vector 8 NetworkModified.host[4].wlan[0].radio radioMode:vector ETV
attr interpolationmode sample-hold
attr source radioModeChanged
attr title "Radio mode, vector"
vector 9 NetworkModified.host[4].wlan[0].radio radioChannel:vector ETV
attr interpolationmode sample-hold
attr source radioChannelChanged
attr title "Radio channel, vector"
vector 10 NetworkModified.host[0].wlan[0].radio receptionState:vector ETV
attr interpolationmode sample-hold
attr source receptionStateChanged
attr title "Radio reception state, vector"
vector 11 NetworkModified.host[1].wlan[0].radio receptionState:vector ETV
attr interpolationmode sample-hold
attr source receptionStateChanged
attr title "Radio reception state, vector"
vector 12 NetworkModified.host[2].wlan[0].radio receptionState:vector ETV
attr interpolationmode sample-hold
attr source receptionStateChanged
attr title "Radio reception state, vector"
vector 13 NetworkModified.host[3].wlan[0].radio receptionState:vector ETV
attr interpolationmode sample-hold
attr source receptionStateChanged
attr title "Radio reception state, vector"
vector 14 NetworkModified.host[4].wlan[0].radio receptionState:vector ETV
attr interpolationmode sample-hold
attr source receptionStateChanged
attr title "Radio reception state, vector"
vector 15 NetworkModified.host[0].wlan[0].mac.dcf.recoveryProcedure contentionWindowChanged:vector ETV
attr interpolationmode sample-hold
attr title "contention window, vector"
vector 16 NetworkModified.host[1].wlan[0].mac.dcf.recoveryProcedure contentionWindowChanged:vector ETV
attr interpolationmode sample-hold
attr title "contention window, vector"
vector 17 NetworkModified.host[2].wlan[0].mac.dcf.recoveryProcedure contentionWindowChanged:vector ETV
attr interpolationmode sample-hold
attr title "contention window, vector"
vector 18 NetworkModified.host[3].wlan[0].mac.dcf.recoveryProcedure contentionWindowChanged:vector ETV
attr interpolationmode sample-hold
attr title "contention window, vector"
vector 19 NetworkModified.host[4].wlan[0].mac.dcf.recoveryProcedure contentionWindowChanged:vector ETV
attr interpolationmode sample-hold
attr title "contention window, vector"
vector 20 NetworkModified.host[0].app[0] packetSent:vector(packetBytes) ETV
attr interpolationmode none
attr source packetSent
attr title "packets sent, vector(packetBytes)"
vector 21 NetworkModified.host[0].udp packetSent:vector(packetBytes) ETV
attr interpolationmode none
attr source packetSent
attr title "packets sent, vector(packetBytes)"
vector 22 NetworkModified.host[0].wlan[0].mac packetReceivedFromUpper:vector(packetBytes) ETV
attr interpolationmode none
attr title "packets received from upper layer, vector(packetBytes)"
vector 23 NetworkModified.host[0].wlan[0].mac.dcf.channelAccess.pendingQueue packetPushed:vector(packetBytes) ETV
attr interpolationmode none
attr title "packet pushed, vector(packetBytes)"
vector 24 NetworkModified.host[0].wlan[0].mac.dcf.channelAccess.pendingQueue queueLength:vector ETV
attr interpolationmode sample-hold
attr source "count(packetPushed) - count(packetPopped) - count(packetRemoved) - count(packetDropped)"
attr title "queue length, vector"
vector 25 NetworkModified.host[0].wlan[0].mac.dcf.channelAccess.contention backoffPeriodGenerated:vector ETV
attr interpolationmode none
attr title "backoff periods, vector"
vector 26 NetworkModified.host[0].wlan[0].mac.dcf.channelAccess.contention backoffActive:vector ETV
attr interpolationmode sample-hold
attr source count(backoffStarted)-count(backoffStopped)
attr title "backoff active, vector"
vector 27 NetworkModified.host[0].wlan[0].mac.dcf.channelAccess.pendingQueue packetPopped:vector(packetBytes) ETV
attr interpolationmode none
attr title "packet popped, vector(packetBytes)"
vector 28 NetworkModified.host[0].wlan[0].mac.dcf.channelAccess.pendingQueue queueingTime:vector ETV
attr interpolationmode none
attr source queueingTime(packetPopped)
attr title "queueing times, vector"
attr unit s
vector 29 NetworkModified.host[0].wlan[0].mac.dcf.channelAccess.inProgressFrames queueLength:vector ETV
attr interpolationmode sample-hold
attr source "count(packetEnqueued) - count(packetDequeued)"
attr title "queue length, vector"
vector 30 NetworkModified.host[0].wlan[0].mac.dcf datarateSelected:vector ETV
attr interpolationmode none
attr title "datarates selected, vector"
vector 31 NetworkModified.host[0].wlan[0].mac packetSentToLower:vector(packetBytes) ETV
attr interpolationmode none
attr title "packets sent to lower layer, vector(packetBytes)"
vector 32 NetworkModified.host[0].wlan[0].mac.dcf frameSequenceActive:vector ETV
attr interpolationmode sample-hold
attr source count(frameSequenceStarted)-count(frameSequenceFinished)
attr title "frame sequence active, vector"
vector 33 NetworkModified.host[0].wlan[0].radio transmissionState:vector ETV
attr interpolationmode sample-hold
attr source transmissionStateChanged
attr title "Radio transmission state, vector"
vector 34 NetworkModified.host[0].wlan[0].mac.dcf packetSentToPeer:vector(packetBytes) ETV
attr interpolationmode none
attr title "packets sent, vector(packetBytes)"
vector 35 NetworkModified.host[0].wlan[0].mac.dcf packetSentToPeerMulticast:vector(packetBytes) ETV
attr interpolationmode none
attr source ieee80211Multicast(packetSentToPeer)
attr title "packets sent: multicast, vector(packetBytes)"
vector 36 NetworkModified.host[0].wlan[0].mac.dcf packetSentToPeerWithoutRetry:vector(packetBytes) ETV
attr interpolationmode none
attr source ieee80211NotRetry(packetSentToPeer)
attr title "packets sent: without retry, vector(packetBytes)"
vector 37 NetworkModified.host[0].wlan[0].mac.dcf.channelAccess.inProgressFrames queueingTime:vector ETV
attr interpolationmode none
attr source queueingTime(packetDequeued)
attr title "queueing times, vector"
vector 38 NetworkModified.host[1].wlan[0].mac packetReceivedFromLower:vector(packetBytes) ETV
attr interpolationmode none
attr title "packets received from lower layer, vector(packetBytes)"
vector 39 NetworkModified.host[1].wlan[0].mac.dcf packetReceivedFromPeer:vector(packetBytes) ETV
attr interpolationmode none
attr title "packets received, vector(packetBytes)"
vector 40 NetworkModified.host[1].wlan[0].mac.dcf packetReceivedFromPeerMulticast:vector(packetBytes) ETV
attr interpolationmode none
attr source ieee80211Multicast(packetReceivedFromPeer)
attr title "packets received: multicast, vector(packetBytes)"
vector 41 NetworkModified.host[1].wlan[0].mac.dcf packetReceivedFromPeerWithoutRetry:vector(packetBytes) ETV
attr interpolationmode none
attr source ieee80211NotRetry(packetReceivedFromPeer)
attr title "packets received: without retry, vector(packetBytes)"
vector 42 NetworkModified.host[1].wlan[0].mac packetSentToUpper:vector(packetBytes) ETV
attr interpolationmode none
attr title "packets sent to upper layer, vector(packetBytes)"
vector 43 NetworkModified.host[1].wlan[0].mac packetReceivedFromUpper:vector(packetBytes) ETV
attr interpolationmode none
attr title "packets received from upper layer, vector(packetBytes)"
vector 44 NetworkModified.host[1].wlan[0].mac.dcf.channelAccess.pendingQueue packetPushed:vector(packetBytes) ETV
attr interpolationmode none
attr title "packet pushed, vector(packetBytes)"
vector 45 NetworkModified.host[1].wlan[0].mac.dcf.channelAccess.pendingQueue queueLength:vector ETV
attr interpolationmode sample-hold
attr source "count(packetPushed) - count(packetPopped) - count(packetRemoved) - count(packetDropped)"
attr title "queue length, vector"
vector 46 NetworkModified.host[1].wlan[0].mac.dcf.channelAccess.contention backoffPeriodGenerated:vector ETV
attr interpolationmode none
attr title "backoff periods, vector"
vector 47 NetworkModified.host[1].wlan[0].mac.dcf.channelAccess.contention backoffActive:vector ETV
attr interpolationmode sample-hold
attr source count(backoffStarted)-count(backoffStopped)
attr title "backoff active, vector"
vector 48 NetworkModified.host[2].wlan[0].mac packetReceivedFromLower:vector(packetBytes) ETV
attr interpolationmode none
attr title "packets received from lower layer, vector(packetBytes)"
vector 49 NetworkModified.host[2].wlan[0].mac.dcf packetReceivedFromPeer:vector(packetBytes) ETV
attr interpolationmode none
attr title "packets received, vector(packetBytes)"
vector 50 NetworkModified.host[2].wlan[0].mac.dcf packetReceivedFromPeerMulticast:vector(packetBytes) ETV
attr interpolationmode none
attr source ieee80211Multicast(packetReceivedFromPeer)
attr title "packets received: multicast, vector(packetBytes)"
vector 51 NetworkModified.host[2].wlan[0].mac.dcf packetReceivedFromPeerWithoutRetry:vector(packetBytes) ETV
attr interpolationmode none
attr source ieee80211NotRetry(packetReceivedFromPeer)
attr title "packets received: without retry, vector(packetBytes)"
vector 52 NetworkModified.host[2].wlan[0].mac packetSentToUpper:vector(packetBytes) ETV
attr interpolationmode none
attr title "packets sent to upper layer, vector(packetBytes)"
vector 53 NetworkModified.host[2].wlan[0].mac packetReceivedFromUpper:vector(packetBytes) ETV
attr interpolationmode none
attr title "packets received from upper layer, vector(packetBytes)"
vector 54 NetworkModified.host[2].wlan[0].mac.dcf.channelAccess.pendingQueue packetPushed:vector(packetBytes) ETV
attr interpolationmode none
attr title "packet pushed, vector(packetBytes)"
vector 55 NetworkModified.host[2].wlan[0].mac.dcf.channelAccess.pendingQueue queueLength:vector ETV
attr interpolationmode sample-hold
attr source "count(packetPushed) - count(packetPopped) - count(packetRemoved) - count(packetDropped)"
attr title "queue length, vector"
vector 56 NetworkModified.host[2].wlan[0].mac.dcf.channelAccess.contention backoffPeriodGenerated:vector ETV
attr interpolationmode none
attr title "backoff periods, vector"
vector 57 NetworkModified.host[2].wlan[0].mac.dcf.channelAccess.contention backoffActive:vector ETV
attr interpolationmode sample-hold
attr source count(backoffStarted)-count(backoffStopped)
attr title "backoff active, vector"
vector 58 NetworkModified.host[2].wlan[0].mac.dcf.channelAccess.pendingQueue packetPopped:vector(packetBytes) ETV
attr interpolationmode none
attr title "packet popped, vector(packetBytes)"
vector 59 NetworkModified.host[2].wlan[0].mac.dcf.channelAccess.pendingQueue queueingTime:vector ETV
attr interpolationmode none
attr source queueingTime(packetPopped)
attr title "queueing times, vector"
attr unit s
vector 60 NetworkModified.host[2].wlan[0].mac.dcf.channelAccess.inProgressFrames queueLength:vector ETV
attr interpolationmode sample-hold
attr source "count(packetEnqueued) - count(packetDequeued)"
attr title "queue length, vector"
vector 61 NetworkModified.host[2].wlan[0].mac.dcf datarateSelected:vector ETV
attr interpolationmode none
attr title "datarates selected, vector"
vector 62 NetworkModified.host[2].wlan[0].mac packetSentToLower:vector(packetBytes) ETV
attr interpolationmode none
attr title "packets sent to lower layer, vector(packetBytes)"
vector 63 NetworkModified.host[2].wlan[0].mac.dcf frameSequenceActive:vector ETV
attr interpolationmode sample-hold
attr source count(frameSequenceStarted)-count(frameSequenceFinished)
attr title "frame sequence active, vector"
vector 64 NetworkModified.host[2].wlan[0].radio transmissionState:vector ETV
attr interpolationmode sample-hold
attr source transmissionStateChanged
attr title "Radio transmission state, vector"
vector 65 NetworkModified.host[2].wlan[0].mac.dcf packetSentToPeer:vector(packetBytes) ETV
attr interpolationmode none
attr title "packets sent, vector(packetBytes)"
vector 66 NetworkModified.host[2].wlan[0].mac.dcf packetSentToPeerMulticast:vector(packetBytes) ETV
attr interpolationmode none
attr source ieee80211Multicast(packetSentToPeer)
attr title "packets sent: multicast, vector(packetBytes)"
vector 67 NetworkModified.host[2].wlan[0].mac.dcf packetSentToPeerWithoutRetry:vector(packetBytes) ETV
attr interpolationmode none
attr source ieee80211NotRetry(packetSentToPeer)
attr title "packets sent: without retry, vector(packetBytes)"
vector 68 NetworkModified.host[2].wlan[0].mac.dcf.channelAccess.inProgressFrames queueingTime:vector ETV
attr interpolationmode none
attr source queueingTime(packetDequeued)
attr title "queueing times, vector"
vector 69 NetworkModified.host[1].wlan[0].mac.dcf.channelAccess.pendingQueue packetPopped:vector(packetBytes) ETV
attr interpolationmode none
attr title "packet popped, vector(packetBytes)"
vector 70 NetworkModified.host[1].wlan[0].mac.dcf.channelAccess.pendingQueue queueingTime:vector ETV
attr interpolationmode none
attr source queueingTime(packetPopped)
attr title "queueing times, vector"
attr unit s
vector 71 NetworkModified.host[1].wlan[0].mac.dcf.channelAccess.inProgressFrames queueLength:vector ETV
attr interpolationmode sample-hold
attr source "count(packetEnqueued) - count(packetDequeued)"
attr title "queue length, vector"
vector 72 NetworkModified.host[1].wlan[0].mac.dcf datarateSelected:vector ETV
attr interpolationmode none
attr title "datarates selected, vector"
vector 73 NetworkModified.host[1].wlan[0].mac packetSentToLower:vector(packetBytes) ETV
attr interpolationmode none
attr title "packets sent to lower layer, vector(packetBytes)"
vector 74 NetworkModified.host[1].wlan[0].mac.dcf frameSequenceActive:vector ETV
attr interpolationmode sample-hold
attr source count(frameSequenceStarted)-count(frameSequenceFinished)
attr title "frame sequence active, vector"
vector 75 NetworkModified.host[1].wlan[0].radio transmissionState:vector ETV
attr interpolationmode sample-hold
attr source transmissionStateChanged
attr title "Radio transmission state, vector"
vector 76 NetworkModified.host[1].wlan[0].mac.dcf packetSentToPeer:vector(packetBytes) ETV
attr interpolationmode none
attr title "packets sent, vector(packetBytes)"
vector 77 NetworkModified.host[1].wlan[0].mac.dcf packetSentToPeerMulticast:vector(packetBytes) ETV
attr interpolationmode none
attr source ieee80211Multicast(packetSentToPeer)
attr title "packets sent: multicast, vector(packetBytes)"
vector 78 NetworkModified.host[1].wlan[0].mac.dcf packetSentToPeerWithoutRetry:vector(packetBytes) ETV
attr interpolationmode none
attr source ieee80211NotRetry(packetSentToPeer)
attr title "packets sent: without retry, vector(packetBytes)"
vector 79 NetworkModified.host[1].wlan[0].mac.dcf.channelAccess.inProgressFrames queueingTime:vector ETV
attr interpolationmode none
attr source queueingTime(packetDequeued)
attr title "queueing times, vector"
vector 80 NetworkModified.host[0].wlan[0].mac packetReceivedFromLower:vector(packetBytes) ETV
attr interpolationmode none
attr title "packets received from lower layer, vector(packetBytes)"
vector 81 NetworkModified.host[0].wlan[0].mac.dcf packetReceivedFromPeer:vector(packetBytes) ETV
attr interpolationmode none
attr title "packets received, vector(packetBytes)"
vector 82 NetworkModified.host[0].wlan[0].mac.dcf packetReceivedFromPeerMulticast:vector(packetBytes) ETV
attr interpolationmode none
attr source ieee80211Multicast(packetReceivedFromPeer)
attr title "packets received: multicast, vector(packetBytes)"
vector 83 NetworkModified.host[0].wlan[0].mac.dcf packetReceivedFromPeerWithoutRetry:vector(packetBytes) ETV
attr interpolationmode none
attr source ieee80211NotRetry(packetReceivedFromPeer)
attr title "packets received: without retry, vector(packetBytes)"
vector 84 NetworkModified.host[0].wlan[0].mac packetSentToUpper:vector(packetBytes) ETV
attr interpolationmode none
attr title "packets sent to upper layer, vector(packetBytes)"
vector 85 NetworkModified.host[3].wlan[0].mac packetReceivedFromLower:vector(packetBytes) ETV
attr interpolationmode none
attr title "packets received from lower layer, vector(packetBytes)"
vector 86 NetworkModified.host[3].wlan[0].mac.dcf packetReceivedFromPeer:vector(packetBytes) ETV
attr interpolationmode none
attr title "packets received, vector(packetBytes)"
vector 87 NetworkModified.host[3].wlan[0].mac.dcf packetReceivedFromPeerMulticast:vector(packetBytes) ETV
attr interpolationmode none
attr source ieee80211Multicast(packetReceivedFromPeer)
attr title "packets received: multicast, vector(packetBytes)"
vector 88 NetworkModified.host[3].wlan[0].mac.dcf packetReceivedFromPeerWithoutRetry:vector(packetBytes) ETV
attr interpolationmode none
attr source ieee80211NotRetry(packetReceivedFromPeer)
attr title "packets received: without retry, vector(packetBytes)"
vector 89 NetworkModified.host[3].wlan[0].mac packetSentToUpper:vector(packetBytes) ETV
attr interpolationmode none
attr title "packets sent to upper layer, vector(packetBytes)"
vector 90 NetworkModified.host[3].wlan[0].mac packetReceivedFromUpper:vector(packetBytes) ETV
attr interpolationmode none
attr title "packets received from upper layer, vector(packetBytes)"
vector 91 NetworkModified.host[3].wlan[0].mac.dcf.channelAccess.pendingQueue packetPushed:vector(packetBytes) ETV
attr interpolationmode none
attr title "packet pushed, vector(packetBytes)"
vector 92 NetworkModified.host[3].wlan[0].mac.dcf.channelAccess.pendingQueue queueLength:vector ETV
attr interpolationmode sample-hold
attr source "count(packetPushed) - count(packetPopped) - count(packetRemoved) - count(packetDropped)"
attr title "queue length, vector"
vector 93 NetworkModified.host[3].wlan[0].mac.dcf.channelAccess.contention backoffPeriodGenerated:vector ETV
attr interpolationmode none
attr title "backoff periods, vector"
vector 94 NetworkModified.host[3].wlan[0].mac.dcf.channelAccess.contention backoffActive:vector ETV
attr interpolationmode sample-hold
attr source count(backoffStarted)-count(backoffStopped)
attr title "backoff active, vector"
vector 95 NetworkModified.host[3].wlan[0].mac.dcf.channelAccess.pendingQueue packetPopped:vector(packetBytes) ETV
attr interpolationmode none
attr title "packet popped, vector(packetBytes)"
vector 96 NetworkModified.host[3].wlan[0].mac.dcf.channelAccess.pendingQueue queueingTime:vector ETV
attr interpolationmode none
attr source queueingTime(packetPopped)
attr title "queueing times, vector"
attr unit s
vector 97 NetworkModified.host[3].wlan[0].mac.dcf.channelAccess.inProgressFrames queueLength:vector ETV
attr interpolationmode sample-hold
attr source "count(packetEnqueued) - count(packetDequeued)"
attr title "queue length, vector"
vector 98 NetworkModified.host[3].wlan[0].mac.dcf datarateSelected:vector ETV
attr interpolationmode none
attr title "datarates selected, vector"
vector 99 NetworkModified.host[3].wlan[0].mac packetSentToLower:vector(packetBytes) ETV
attr interpolationmode none
attr title "packets sent to lower layer, vector(packetBytes)"
vector 100 NetworkModified.host[3].wlan[0].mac.dcf frameSequenceActive:vector ETV
attr interpolationmode sample-hold
attr source count(frameSequenceStarted)-count(frameSequenceFinished)
attr title "frame sequence active, vector"
vector 101 NetworkModified.host[3].wlan[0].radio transmissionState:vector ETV
attr interpolationmode sample-hold
attr source transmissionStateChanged
attr title "Radio transmission state, vector"
vector 102 NetworkModified.host[3].wlan[0].mac.dcf packetSentToPeer:vector(packetBytes) ETV
attr interpolationmode none
attr title "packets sent, vector(packetBytes)"
vector 103 NetworkModified.host[3].wlan[0].mac.dcf packetSentToPeerMulticast:vector(packetBytes) ETV
attr interpolationmode none
attr source ieee80211Multicast(packetSentToPeer)
attr title "packets sent: multicast, vector(packetBytes)"
vector 104 NetworkModified.host[3].wlan[0].mac.dcf packetSentToPeerWithoutRetry:vector(packetBytes) ETV
attr interpolationmode none
attr source ieee80211NotRetry(packetSentToPeer)
attr title "packets sent: without retry, vector(packetBytes)"
vector 105 NetworkModified.host[3].wlan[0].mac.dcf.channelAccess.inProgressFrames queueingTime:vector ETV
attr interpolationmode none
attr source queueingTime(packetDequeued)
attr title "queueing times, vector"
vector 106 NetworkModified.host[4].wlan[0].mac packetReceivedFromLower:vector(packetBytes) ETV
attr interpolationmode none
attr title "packets received from lower layer, vector(packetBytes)"
vector 107 NetworkModified.host[4].wlan[0].mac.dcf packetReceivedFromPeer:vector(packetBytes) ETV
attr interpolationmode none
attr title "packets received, vector(packetBytes)"
vector 108 NetworkModified.host[4].wlan[0].mac.dcf packetReceivedFromPeerMulticast:vector(packetBytes) ETV
attr interpolationmode none
attr source ieee80211Multicast(packetReceivedFromPeer)
attr title "packets received: multicast, vector(packetBytes)"
vector 109 NetworkModified.host[4].wlan[0].mac.dcf packetReceivedFromPeerWithoutRetry:vector(packetBytes) ETV
attr interpolationmode none
attr source ieee80211NotRetry(packetReceivedFromPeer)
attr title "packets received: without retry, vector(packetBytes)"
vector 110 NetworkModified.host[4].wlan[0].mac packetSentToUpper:vector(packetBytes) ETV
attr interpolationmode none
attr title "packets sent to upper layer, vector(packetBytes)"
vector 111 NetworkModified.host[4].udp packetReceived:vector(packetBytes) ETV
attr interpolationmode none
attr source packetReceived
attr title "packets received, vector(packetBytes)"
vector 112 NetworkModified.host[4].udp passedUpPk:vector(count) ETV
attr interpolationmode none
attr source packetSentToUpper
attr title "packets passed up, vector(count)"
vector 113 NetworkModified.host[4].app[0] packetReceived:vector(packetBytes) ETV
attr interpolationmode none
attr source packetReceived
attr title "packets received, vector(packetBytes)"
vector 114 NetworkModified.host[4].app[0] throughput:vector ETV
attr source throughput(packetReceived)
attr title "throughput, vector"
attr unit bps
vector 115 NetworkModified.host[4].app[0] endToEndDelay:vector ETV
attr interpolationmode none
attr source dataAge(packetReceived)
attr title "end-to-end delay, vector"
attr unit s
vector 116 NetworkModified.host[4].app[0] rcvdPkSeqNo:vector ETV
attr interpolationmode none
attr source appPkSeqNo(packetReceived)
attr title "received packet sequence number, vector"
0	0	0	0
0	0	0	0
0	0	0	2
0	17	0.005488135023	3
0	24	0.005570135023	2
0	79	0.006272802151	3
0	94	0.006354802151	2
0	117	0.025488135023	3
0	124	0.025570135023	2
0	155	0.025992802151	3
0	162	0.026074802151	2
0	177	0.045488135023	3
0	184	0.045570135023	2
0	280	0.065488135023	3
0	287	0.065570135023	2
0	360	0.085488135023	3
0	367	0.085570135023	2
0	380	0.105488135023	3
0	387	0.105570135023	2
0	418	0.106392802151	3
0	425	0.106474802151	2
0	440	0.125488135023	3
0	447	0.125570135023	2
0	460	0.145488135023	3
0	467	0.145570135023	2
0	480	0.165488135023	3
0	487	0.165570135023	2
0	568	0.185488135023	3
0	575	0.185570135023	2
0	608	0.205488135023	3
0	615	0.205570135023	2
0	628	0.225488135023	3
0	635	0.225570135023	2
0	648	0.245488135023	3
0	655	0.245570135023	2
0	731	0.265488135023	3
0	738	0.265570135023	2
0	751	0.285488135023	3
0	758	0.285570135023	2
0	771	0.305488135023	3
0	778	0.305570135023	2
0	809	0.306592802151	3
0	816	0.306674802151	2
0	854	0.325488135023	3
0	861	0.325570135023	2
0	905	0.326352802151	3
0	918	0.326434802151	2
0	954	0.345488135023	3
0	961	0.345570135023	2
0	994	0.365488135023	3
0	1001	0.365570135023	2
0	1014	0.385488135023	3
0	1021	0.385570135023	2
0	1052	0.386412802151	3
0	1059	0.386494802151	2
0	1074	0.405488135023	3
0	1081	0.405570135023	2
0	1114	0.425488135023	3
0	1121	0.425570135023	2
0	1134	0.445488135023	3
0	1141	0.445570135023	2
0	1196	0.446865469279	3
0	1203	0.446947469279	2
0	1243	0.465488135023	3
0	1250	0.465570135023	2
0	1263	0.485488135023	3
0	1270	0.485570135023	2
0	1283	0.505488135023	3
0	1290	0.505570135023	2
0	1323	0.525488135023	3
0	1330	0.525570135023	2
0	1343	0.545488135023	3
0	1350	0.545570135023	2
0	1383	0.565488135023	3
0	1390	0.565570135023	2
0	1403	0.585488135023	3
0	1410	0.585570135023	2
0	1465	0.586432802151	3
0	1472	0.586514802151	2
0	1503	0.605488135023	3
0	1510	0.605570135023	2
0	1541	0.606212802151	3
0	1548	0.606294802151	2
0	1563	0.625488135023	3
0	1570	0.625570135023	2
0	1583	0.645488135023	3
0	1590	0.645570135023	2
0	1603	0.665488135023	3
0	1610	0.665570135023	2
0	1643	0.685488135023	3
0	1650	0.685570135023	2
0	1683	0.705488135023	3
0	1690	0.705570135023	2
0	1723	0.725488135023	3
0	1730	0.725570135023	2
0	1743	0.745488135023	3
0	1750	0.745570135023	2
0	1763	0.765488135023	3
0	1770	0.765570135023	2
0	1801	0.766392802151	3
0	1808	0.766474802151	2
0	1823	0.785488135023	3
0	1830	0.785570135023	2
0	1843	0.805488135023	3
0	1850	0.805570135023	2
0	1863	0.825488135023	3
0	1870	0.825570135023	2
0	1883	0.845488135023	3
0	1890	0.845570135023	2
0	1903	0.865488135023	3
0	1910	0.865570135023	2
0	1923	0.885488135023	3
0	1930	0.885570135023	2
0	1943	0.905488135023	3
0	1950	0.905570135023	2
0	1963	0.925488135023	3
0	1970	0.925570135023	2
0	1983	0.945488135023	3
0	1990	0.945570135023	2
0	2021	0.946092802151	3
0	2028	0.946174802151	2
0	2043	0.965488135023	3
0	2050	0.965570135023	2
0	2063	0.985488135023	3
0	2070	0.985570135023	2
0	2103	1.005488135023	3
0	2110	1.005570135023	2
0	2123	1.025488135023	3
0	2130	1.025570135023	2
0	2143	1.045488135023	3
0	2150	1.045570135023	2
0	2163	1.065488135023	3
0	2170	1.065570135023	2
0	2183	1.085488135023	3
0	2190	1.085570135023	2
0	2221	1.086292802151	3
0	2228	1.086374802151	2
0	2243	1.105488135023	3
0	2250	1.105570135023	2
0	2263	1.125488135023	3
0	2270	1.125570135023	2
0	2283	1.145488135023	3
0	2290	1.145570135023	2
0	2303	1.165488135023	3
0	2310	1.165570135023	2
0	2343	1.185488135023	3
0	2350	1.185570135023	2
0	2381	1.186412802151	3
0	2388	1.186494802151	2
0	2429	1.205488135023	3
0	2436	1.205570135023	2
0	2542	1.225488135023	3
0	2549	1.225570135023	2
0	2582	1.245488135023	3
0	2589	1.245570135023	2
0	2602	1.265488135023	3
0	2609	1.265570135023	2
0	2682	1.285488135023	3
0	2689	1.285570135023	2
0	2742	1.305488135023	3
0	2749	1.305570135023	2
0	2802	1.325488135023	3
0	2809	1.325570135023	2
0	2840	1.326192802151	3
0	2847	1.326274802151	2
0	2862	1.345488135023	3
0	2869	1.345570135023	2
0	2882	1.365488135023	3
0	2889	1.365570135023	2
0	2902	1.385488135023	3
0	2909	1.385570135023	2
0	2945	1.386532802151	3
0	2960	1.386614802151	2
0	3008	1.405488135023	3
0	3015	1.405570135023	2
0	3028	1.425488135023	3
0	3035	1.425570135023	2
0	3048	1.445488135023	3
0	3055	1.445570135023	2
0	3068	1.465488135023	3
0	3075	1.465570135023	2
0	3088	1.485488135023	3
0	3095	1.485570135023	2
0	3108	1.505488135023	3
0	3115	1.505570135023	2
0	3165	1.506252802151	3
0	3172	1.506334802151	2
0	3188	1.525488135023	3
0	3195	1.525570135023	2
0	3208	1.545488135023	3
0	3215	1.545570135023	2
0	3294	1.565488135023	3
0	3301	1.565570135023	2
0	3314	1.585488135023	3
0	3321	1.585570135023	2
0	3334	1.605488135023	3
0	3341	1.605570135023	2
0	3419	1.625488135023	3
0	3426	1.625570135023	2
0	3457	1.626752802151	3
0	3464	1.626834802151	2
0	3479	1.645488135023	3
0	3486	1.645570135023	2
0	3519	1.665488135023	3
0	3526	1.665570135023	2
0	3539	1.685488135023	3
0	3546	1.685570135023	2
0	3559	1.705488135023	3
0	3566	1.705570135023	2
0	3579	1.725488135023	3
0	3586	1.725570135023	2
0	3617	1.725912802151	3
0	3624	1.725994802151	2
0	3639	1.745488135023	3
0	3646	1.745570135023	2
0	3679	1.765488135023	3
0	3686	1.765570135023	2
0	3699	1.785488135023	3
0	3706	1.785570135023	2
0	3739	1.805488135023	3
0	3746	1.805570135023	2
0	3759	1.825488135023	3
0	3766	1.825570135023	2
0	3842	1.845488135023	3
0	3849	1.845570135023	2
0	3862	1.865488135023	3
0	3869	1.865570135023	2
0	3882	1.885488135023	3
0	3889	1.885570135023	2
0	3902	1.905488135023	3
0	3909	1.905570135023	2
0	3922	1.925488135023	3
0	3929	1.925570135023	2
0	3942	1.945488135023	3
0	3949	1.945570135023	2
0	3962	1.965488135023	3
0	3969	1.965570135023	2
0	4002	1.985488135023	3
0	4009	1.985570135023	2
0	4085	2.005488135023	3
0	4092	2.005570135023	2
0	4105	2.025488135023	3
0	4112	2.025570135023	2
0	4125	2.045488135023	3
0	4132	2.045570135023	2
0	4165	2.065488135023	3
0	4172	2.065570135023	2
0	4185	2.085488135023	3
0	4192	2.085570135023	2
0	4205	2.105488135023	3
0	4212	2.105570135023	2
0	4225	2.125488135023	3
0	4232	2.125570135023	2
0	4245	2.145488135023	3
0	4252	2.145570135023	2
0	4310	2.165488135023	3
0	4317	2.165570135023	2
0	4348	2.166132802151	3
0	4355	2.166214802151	2
0	4393	2.185488135023	3
0	4400	2.185570135023	2
0	4413	2.205488135023	3
0	4420	2.205570135023	2
0	4473	2.225488135023	3
0	4480	2.225570135023	2
0	4511	2.226652802151	3
0	4518	2.226734802151	2
0	4553	2.245488135023	3
0	4560	2.245570135023	2
0	4573	2.265488135023	3
0	4580	2.265570135023	2
0	4593	2.285488135023	3
0	4600	2.285570135023	2
0	4613	2.305488135023	3
0	4620	2.305570135023	2
0	4633	2.325488135023	3
0	4640	2.325570135023	2
0	4653	2.345488135023	3
0	4660	2.345570135023	2
0	4693	2.365488135023	3
0	4700	2.365570135023	2
0	4713	2.385488135023	3
0	4720	2.385570135023	2
0	4733	2.405488135023	3
0	4740	2.405570135023	2
0	4753	2.425488135023	3
0	4760	2.425570135023	2
0	4773	2.445488135023	3
0	4780	2.445570135023	2
0	4793	2.465488135023	3
0	4800	2.465570135023	2
0	4873	2.485488135023	3
0	4880	2.485570135023	2
0	4913	2.505488135023	3
0	4920	2.505570135023	2
0	4933	2.525488135023	3
0	4940	2.525570135023	2
0	4953	2.545488135023	3
0	4960	2.545570135023	2
0	4973	2.565488135023	3
0	4980	2.565570135023	2
0	4993	2.585488135023	3
0	5000	2.585570135023	2
0	5013	2.605488135023	3
0	5020	2.605570135023	2
0	5073	2.625488135023	3
0	5080	2.625570135023	2
0	5111	2.626392802151	3
0	5118	2.626474802151	2
0	5133	2.645488135023	3
0	5140	2.645570135023	2
0	5173	2.665488135023	3
0	5180	2.665570135023	2
0	5193	2.685488135023	3
0	5200	2.685570135023	2
0	5213	2.705488135023	3
0	5220	2.705570135023	2
0	5233	2.725488135023	3
0	5240	2.725570135023	2
0	5253	2.745488135023	3
0	5260	2.745570135023	2
0	5273	2.765488135023	3
0	5280	2.765570135023	2
0	5330	2.766212802151	3
0	5337	2.766294802151	2
0	5353	2.785488135023	3
0	5360	2.785570135023	2
0	5373	2.805488135023	3
0	5380	2.805570135023	2
0	5393	2.825488135023	3
0	5400	2.825570135023	2
0	5413	2.845488135023	3
0	5420	2.845570135023	2
0	5433	2.865488135023	3
0	5440	2.865570135023	2
0	5476	2.866392802151	3
0	5483	2.866474802151	2
0	5553	2.885488135023	3
0	5560	2.885570135023	2
0	5573	2.905488135023	3
0	5580	2.905570135023	2
0	5593	2.925488135023	3
0	5600	2.925570135023	2
0	5613	2.945488135023	3
0	5620	2.945570135023	2
0	5633	2.965488135023	3
0	5640	2.965570135023	2
0	5671	2.966132802151	3
0	5678	2.966214802151	2
0	5693	2.985488135023	3
0	5700	2.985570135023	2
0	5758	3.005488135023	3
0	5765	3.005570135023	2
0	5796	3.005992802151	3
0	5803	3.006074802151	2
0	5838	3.025488135023	3
0	5845	3.025570135023	2
0	5878	3.045488135023	3
0	5885	3.045570135023	2
0	5921	3.046132802151	3
0	5928	3.046214802151	2
0	5954	3.046645469279	3
0	5961	3.046727469279	2
0	5978	3.065488135023	3
0	5985	3.065570135023	2
0	5998	3.085488135023	3
0	6005	3.085570135023	2
0	6018	3.105488135023	3
0	6025	3.105570135023	2
0	6058	3.125488135023	3
0	6065	3.125570135023	2
0	6078	3.145488135023	3
0	6085	3.145570135023	2
0	6166	3.165488135023	3
0	6173	3.165570135023	2
0	6186	3.185488135023	3
0	6193	3.185570135023	2
0	6206	3.205488135023	3
0	6213	3.205570135023	2
0	6291	3.225488135023	3
0	6298	3.225570135023	2
0	6311	3.245488135023	3
0	6318	3.245570135023	2
0	6331	3.265488135023	3
0	6338	3.265570135023	2
0	6374	3.266272802151	3
0	6381	3.266354802151	2
0	6411	3.285488135023	3
0	6418	3.285570135023	2
0	6431	3.305488135023	3
0	6438	3.305570135023	2
0	6469	3.306612802151	3
0	6476	3.306694802151	2
0	6491	3.325488135023	3
0	6498	3.325570135023	2
0	6511	3.345488135023	3
0	6518	3.345570135023	2
0	6551	3.365488135023	3
0	6558	3.365570135023	2
0	6571	3.385488135023	3
0	6578	3.385570135023	2
0	6609	3.386612802151	3
1	0	0	0
2	0	0	0
2	0	0	0
2	0	0	2
2	55	0.005980468587	3
2	62	0.006062468587	2
2	136	0.025820468587	3
2	143	0.025902468587	2
2	196	0.045760468587	3
2	203	0.045842468587	2
2	253	0.046785135715	3
2	260	0.046867135715	2
2	299	0.066240468587	3
2	306	0.066322468587	2
2	337	0.067705135715	3
2	344	0.067787135715	2
2	399	0.105820468587	3
2	406	0.105902468587	2
2	499	0.166180468587	3
2	506	0.166262468587	2
2	587	0.185780468587	3
2	594	0.185862468587	2
2	667	0.245920468587	3
2	674	0.246002468587	2
2	705	0.246645135715	3
2	712	0.246727135715	2
2	790	0.305960468587	3
2	797	0.306042468587	2
2	828	0.306745135715	3
2	835	0.306827135715	2
2	873	0.325840468587	3
2	880	0.325922468587	2
2	930	0.326925135715	3
2	937	0.327007135715	2
2	973	0.346000468587	3
2	980	0.346082468587	2
2	1033	0.386200468587	3
2	1040	0.386282468587	2
2	1093	0.406140468587	3
2	1100	0.406222468587	2
2	1153	0.445780468587	3
2	1160	0.445862468587	2
2	1213	0.447105135715	3
2	1220	0.447187135715	2
2	1302	0.505700468587	3
2	1309	0.505782468587	2
2	1362	0.545700468587	3
2	1369	0.545782468587	2
2	1422	0.585760468587	3
2	1429	0.585842468587	2
2	1522	0.606000468587	3
2	1529	0.606082468587	2
2	1622	0.666180468587	3
2	1629	0.666262468587	2
2	1662	0.685980468587	3
2	1669	0.686062468587	2
2	1702	0.705980468587	3
2	1709	0.706062468587	2
2	1782	0.765720468587	3
2	1789	0.765802468587	2
2	2002	0.945700468587	3
2	2009	0.945782468587	2
2	2082	0.985860468587	3
2	2089	0.985942468587	2
2	2202	1.085700468587	3
2	2209	1.085782468587	2
2	2322	1.166140468587	3
2	2329	1.166222468587	2
2	2362	1.186200468587	3
2	2369	1.186282468587	2
2	2400	1.186685135715	3
2	2407	1.186767135715	2
2	2448	1.206100468587	3
2	2455	1.206182468587	2
2	2518	1.207565135715	3
2	2525	1.207647135715	2
2	2561	1.225940468587	3
2	2568	1.226022468587	2
2	2621	1.265820468587	3
2	2628	1.265902468587	2
2	2720	1.286613135715	3
2	2727	1.286695135715	2
2	2761	1.305920468587	3
2	2768	1.306002468587	2
2	2821	1.325800468587	3
2	2828	1.325882468587	2
2	2921	1.385880468587	3
2	2928	1.385962468587	2
2	2978	1.387005135715	3
2	2985	1.387087135715	2
2	3127	1.505880468587	3
2	3134	1.505962468587	2
2	3227	1.545980468587	3
2	3234	1.546062468587	2
2	3265	1.547125135715	3
2	3272	1.547207135715	2
2	3353	1.605820468587	3
2	3360	1.605902468587	2
2	3438	1.626020468587	3
2	3445	1.626102468587	2
2	3498	1.645740468587	3
2	3505	1.645822468587	2
2	3598	1.725700468587	3
2	3605	1.725782468587	2
2	3658	1.746180468587	3
2	3665	1.746262468587	2
2	3718	1.786040468587	3
2	3725	1.786122468587	2
2	3778	1.825960468587	3
2	3785	1.826042468587	2
2	3816	1.826805135715	3
2	3823	1.826887135715	2
2	3981	1.966220468587	3
2	3988	1.966302468587	2
2	4021	1.985720468587	3
2	4028	1.985802468587	2
2	4144	2.045660468587	3
2	4151	2.045742468587	2
2	4329	2.165900468587	3
2	4336	2.165982468587	2
2	4367	2.166845135715	3
2	4374	2.166927135715	2
2	4432	2.206200468587	3
2	4439	2.206282468587	2
2	4492	2.226140468587	3
2	4499	2.226222468587	2
2	4530	2.227405135715	3
2	4537	2.227487135715	2
2	4672	2.346220468587	3
2	4679	2.346302468587	2
2	4812	2.466080468587	3
2	4819	2.466162468587	2
2	5032	2.605840468587	3
2	5039	2.605922468587	2
2	5092	2.626120468587	3
2	5099	2.626202468587	2
2	5152	2.645760468587	3
2	5159	2.645842468587	2
2	5292	2.765660468587	3
2	5299	2.765742468587	2
2	5452	2.866020468587	3
2	5459	2.866102468587	2
2	5528	2.867185135715	3
2	5535	2.867267135715	2
2	5652	2.965800468587	3
2	5659	2.965882468587	2
2	5712	2.986200468587	3
2	5719	2.986282468587	2
2	5777	3.005700468587	3
2	5784	3.005782468587	2
2	5815	3.006345135715	3
2	5822	3.006427135715	2
2	5857	3.026020468587	3
2	5864	3.026102468587	2
2	5897	3.045640468587	3
2	5904	3.045722468587	2
2	6037	3.106240468587	3
2	6044	3.106322468587	2
2	6097	3.146060468587	3
2	6104	3.146142468587	2
2	6140	3.147005135715	3
2	6147	3.147087135715	2
2	6350	3.266000468587	3
2	6357	3.266082468587	2
2	6450	3.306100468587	3
2	6457	3.306182468587	2
2	6590	3.385960468587	3
2	6597	3.386042468587	2
3	0	0	0
4	0	0	0
4	0	0	0
4	0	0	2
4	41	0.005700802151	3
4	48	0.005782802151	2
4	87	0.006292802151	3
4	100	0.006374802151	2
4	215	0.046432802151	3
4	222	0.046514802151	2
4	318	0.066952802151	3
4	325	0.067034802151	2
4	518	0.166892802151	3
4	525	0.166974802151	2
4	686	0.246332802151	3
4	693	0.246414802151	2
4	897	0.326312802151	3
4	912	0.326394802151	2
4	1172	0.446412802151	3
4	1179	0.446494802151	2
4	1446	0.586132802151	3
4	1453	0.586214802151	2
4	2467	1.206832802151	3
4	2474	1.206914802151	2
4	2640	1.266112802151	3
4	2647	1.266194802151	2
4	2701	1.286140802151	3
4	2708	1.286222802151	2
4	2780	1.306212802151	3
4	2787	1.306294802151	2
4	2953	1.386592802151	3
4	2971	1.386674802151	2
4	3151	1.506132802151	3
4	3158	1.506214802151	2
4	3246	1.546592802151	3
4	3253	1.546674802151	2
4	3372	1.606152802151	3
4	3379	1.606234802151	2
4	3797	1.826292802151	3
4	3804	1.826374802151	2
4	4040	1.985932802151	3
4	4047	1.986014802151	2
4	4264	2.146160802151	3
4	4271	2.146242802151	2
4	4451	2.206572802151	3
4	4458	2.206654802151	2
4	4831	2.466512802151	3
4	4838	2.466594802151	2
4	4892	2.485760802151	3
4	4899	2.485842802151	2
4	5051	2.606072802151	3
4	5058	2.606154802151	2
4	5316	2.765872802151	3
4	5323	2.765954802151	2
4	5490	2.866492802151	3
4	5497	2.866574802151	2
4	5935	3.046392802151	3
4	5942	3.046474802151	2
4	6121	3.146632802151	3
4	6128	3.146714802151	2
4	6244	3.206100802151	3
4	6251	3.206182802151	2
4	6388	3.266612802151	3
4	6395	3.266694802151	2
4	6530	3.345940802151	3
4	6537	3.346022802151	2
5	0	0	0
6	0	0	0
6	0	0	0
6	0	0	2
6	239	0.046645135715	3
6	246	0.046727135715	2
6	537	0.167605135715	3
6	544	0.167687135715	2
6	1479	0.586805135715	3
6	1486	0.586887135715	2
6	2496	1.207425135715	3
6	2503	1.207507135715	2
6	2659	1.266265135715	3
6	2666	1.266347135715	2
6	3391	1.606605135715	3
6	3398	1.606687135715	2
6	4059	1.986125135715	3
6	4066	1.986207135715	2
6	4283	2.146633135715	3
6	4290	2.146715135715	2
6	4850	2.467145135715	3
6	4857	2.467227135715	2
6	5514	2.867025135715	3
6	5521	2.867107135715	2
6	5731	2.986613135715	3
6	5738	2.986695135715	2
6	6230	3.205841135715	3
6	6237	3.205923135715	2
6	6263	3.206813135715	3
6	6270	3.206895135715	2
7	0	0	0
8	0	0	0
8	0	0	0
8	0	0	2
9	0	0	0
10	0	0	1
10	17	0.005488135023	0
10	24	0.005570135023	1
10	57	0.005980802151	3
10	63	0.006062802151	1
10	79	0.006272802151	0
10	94	0.006354802151	2
10	103	0.006375469279	1
10	117	0.025488135023	0
10	124	0.025570135023	1
10	138	0.025820802151	3
10	144	0.025902802151	1
10	155	0.025992802151	0
10	162	0.026074802151	1
10	177	0.045488135023	0
10	184	0.045570135023	1
10	280	0.065488135023	0
10	287	0.065570135023	1
10	360	0.085488135023	0
10	367	0.085570135023	1
10	380	0.105488135023	0
10	387	0.105570135023	1
10	401	0.105820802151	3
10	407	0.105902802151	1
10	418	0.106392802151	0
10	425	0.106474802151	1
10	440	0.125488135023	0
10	447	0.125570135023	1
10	460	0.145488135023	0
10	467	0.145570135023	1
10	480	0.165488135023	0
10	487	0.165570135023	1
10	568	0.185488135023	0
10	575	0.185570135023	1
10	608	0.205488135023	0
10	615	0.205570135023	1
10	628	0.225488135023	0
10	635	0.225570135023	1
10	648	0.245488135023	0
10	655	0.245570135023	1
10	707	0.246645469279	3
10	713	0.246727469279	1
10	731	0.265488135023	0
10	738	0.265570135023	1
10	751	0.285488135023	0
10	758	0.285570135023	1
10	771	0.305488135023	0
10	778	0.305570135023	1
10	792	0.305960802151	3
10	798	0.306042802151	1
10	809	0.306592802151	0
10	816	0.306674802151	1
10	830	0.306745469279	3
10	836	0.306827469279	1
10	854	0.325488135023	0
10	861	0.325570135023	1
10	875	0.325840802151	3
10	881	0.325922802151	1
10	905	0.326352802151	0
10	918	0.326434802151	1
10	954	0.345488135023	0
10	961	0.345570135023	1
10	994	0.365488135023	0
10	1001	0.365570135023	1
10	1014	0.385488135023	0
10	1021	0.385570135023	1
10	1035	0.386200802151	3
10	1041	0.386282802151	1
10	1052	0.386412802151	0
10	1059	0.386494802151	1
10	1074	0.405488135023	0
10	1081	0.405570135023	1
10	1114	0.425488135023	0
10	1121	0.425570135023	1
10	1134	0.445488135023	0
10	1141	0.445570135023	1
10	1176	0.446413469279	3
10	1187	0.446495469279	1
10	1196	0.446865469279	0
10	1203	0.446947469279	1
10	1215	0.447105469279	3
10	1221	0.447187469279	1
10	1243	0.465488135023	0
10	1250	0.465570135023	1
10	1263	0.485488135023	0
10	1270	0.485570135023	1
10	1283	0.505488135023	0
10	1290	0.505570135023	1
10	1323	0.525488135023	0
10	1330	0.525570135023	1
10	1343	0.545488135023	0
10	1350	0.545570135023	1
10	1383	0.565488135023	0
10	1390	0.565570135023	1
10	1403	0.585488135023	0
10	1410	0.585570135023	1
10	1424	0.585760802151	3
10	1430	0.585842802151	1
10	1465	0.586432802151	0
10	1472	0.586514802151	1
10	1503	0.605488135023	0
10	1510	0.605570135023	1
10	1524	0.606000802151	3
10	1530	0.606082802151	1
10	1541	0.606212802151	0
10	1548	0.606294802151	1
10	1563	0.625488135023	0
10	1570	0.625570135023	1
10	1583	0.645488135023	0
10	1590	0.645570135023	1
10	1603	0.665488135023	0
10	1610	0.665570135023	1
10	1643	0.685488135023	0
10	1650	0.685570135023	1
10	1683	0.705488135023	0
10	1690	0.705570135023	1
10	1723	0.725488135023	0
10	1730	0.725570135023	1
10	1743	0.745488135023	0
10	1750	0.745570135023	1
10	1763	0.765488135023	0
10	1770	0.765570135023	1
10	1784	0.765720802151	3
10	1790	0.765802802151	1
10	1801	0.766392802151	0
10	1808	0.766474802151	1
10	1823	0.785488135023	0
10	1830	0.785570135023	1
10	1843	0.805488135023	0
10	1850	0.805570135023	1
10	1863	0.825488135023	0
10	1870	0.825570135023	1
10	1883	0.845488135023	0
10	1890	0.845570135023	1
10	1903	0.865488135023	0
10	1910	0.865570135023	1
10	1923	0.885488135023	0
10	1930	0.885570135023	1
10	1943	0.905488135023	0
10	1950	0.905570135023	1
10	1963	0.925488135023	0
10	1970	0.925570135023	1
10	1983	0.945488135023	0
10	1990	0.945570135023	1
10	2004	0.945700802151	3
10	2010	0.945782802151	1
10	2021	0.946092802151	0
10	2028	0.946174802151	1
10	2043	0.965488135023	0
10	2050	0.965570135023	1
10	2063	0.985488135023	0
10	2070	0.985570135023	1
10	2103	1.005488135023	0
10	2110	1.005570135023	1
10	2123	1.025488135023	0
10	2130	1.025570135023	1
10	2143	1.045488135023	0
10	2150	1.045570135023	1
10	2163	1.065488135023	0
10	2170	1.065570135023	1
10	2183	1.085488135023	0
10	2190	1.085570135023	1
10	2204	1.085700802151	3
10	2210	1.085782802151	1
10	2221	1.086292802151	0
10	2228	1.086374802151	1
10	2243	1.105488135023	0
10	2250	1.105570135023	1
10	2263	1.125488135023	0
10	2270	1.125570135023	1
10	2283	1.145488135023	0
10	2290	1.145570135023	1
10	2303	1.165488135023	0
10	2310	1.165570135023	1
10	2343	1.185488135023	0
10	2350	1.185570135023	1
10	2364	1.186200802151	3
10	2370	1.186282802151	1
10	2381	1.186412802151	0
10	2388	1.186494802151	1
10	2402	1.186685469279	3
10	2408	1.186767469279	1
10	2429	1.205488135023	0
10	2436	1.205570135023	1
10	2542	1.225488135023	0
10	2549	1.225570135023	1
10	2582	1.245488135023	0
10	2589	1.245570135023	1
10	2602	1.265488135023	0
10	2609	1.265570135023	1
10	2682	1.285488135023	0
10	2689	1.285570135023	1
10	2742	1.305488135023	0
10	2749	1.305570135023	1
10	2802	1.325488135023	0
10	2809	1.325570135023	1
10	2823	1.325800802151	3
10	2829	1.325882802151	1
10	2840	1.326192802151	0
10	2847	1.326274802151	1
10	2862	1.345488135023	0
10	2869	1.345570135023	1
10	2882	1.365488135023	0
10	2889	1.365570135023	1
10	2902	1.385488135023	0
10	2909	1.385570135023	1
10	2923	1.385880802151	3
10	2929	1.385962802151	1
10	2945	1.386532802151	0
10	2960	1.386614802151	1
10	2980	1.387005469279	3
10	2986	1.387087469279	1
10	3008	1.405488135023	0
10	3015	1.405570135023	1
10	3028	1.425488135023	0
10	3035	1.425570135023	1
10	3048	1.445488135023	0
10	3055	1.445570135023	1
10	3068	1.465488135023	0
10	3075	1.465570135023	1
10	3088	1.485488135023	0
10	3095	1.485570135023	1
10	3108	1.505488135023	0
10	3115	1.505570135023	1
10	3129	1.505880802151	3
10	3135	1.505962802151	1
10	3165	1.506252802151	0
10	3172	1.506334802151	1
10	3188	1.525488135023	0
10	3195	1.525570135023	1
10	3208	1.545488135023	0
10	3215	1.545570135023	1
10	3267	1.547125469279	3
10	3273	1.547207469279	1
10	3294	1.565488135023	0
10	3301	1.565570135023	1
10	3314	1.585488135023	0
10	3321	1.585570135023	1
10	3334	1.605488135023	0
10	3341	1.605570135023	1
10	3419	1.625488135023	0
10	3426	1.625570135023	1
10	3440	1.626020802151	3
10	3446	1.626102802151	1
10	3457	1.626752802151	0
10	3464	1.626834802151	1
10	3479	1.645488135023	0
10	3486	1.645570135023	1
10	3519	1.665488135023	0
10	3526	1.665570135023	1
10	3539	1.685488135023	0
10	3546	1.685570135023	1
10	3559	1.705488135023	0
10	3566	1.705570135023	1
10	3579	1.725488135023	0
10	3586	1.725570135023	1
10	3600	1.725700802151	3
10	3606	1.725782802151	1
10	3617	1.725912802151	0
10	3624	1.725994802151	1
10	3639	1.745488135023	0
10	3646	1.745570135023	1
10	3679	1.765488135023	0
10	3686	1.765570135023	1
10	3699	1.785488135023	0
10	3706	1.785570135023	1
10	3739	1.805488135023	0
10	3746	1.805570135023	1
10	3759	1.825488135023	0
10	3766	1.825570135023	1
10	3818	1.826805469279	3
10	3824	1.826887469279	1
10	3842	1.845488135023	0
10	3849	1.845570135023	1
10	3862	1.865488135023	0
10	3869	1.865570135023	1
10	3882	1.885488135023	0
10	3889	1.885570135023	1
10	3902	1.905488135023	0
10	3909	1.905570135023	1
10	3922	1.925488135023	0
10	3929	1.925570135023	1
10	3942	1.945488135023	0
10	3949	1.945570135023	1
10	3962	1.965488135023	0
10	3969	1.965570135023	1
10	4002	1.985488135023	0
10	4009	1.985570135023	1
10	4085	2.005488135023	0
10	4092	2.005570135023	1
10	4105	2.025488135023	0
10	4112	2.025570135023	1
10	4125	2.045488135023	0
10	4132	2.045570135023	1
10	4165	2.065488135023	0
10	4172	2.065570135023	1
10	4185	2.085488135023	0
10	4192	2.085570135023	1
10	4205	2.105488135023	0
10	4212	2.105570135023	1
10	4225	2.125488135023	0
10	4232	2.125570135023	1
10	4245	2.145488135023	0
10	4252	2.145570135023	1
10	4310	2.165488135023	0
10	4317	2.165570135023	1
10	4331	2.165900802151	3
10	4337	2.165982802151	1
10	4348	2.166132802151	0
10	4355	2.166214802151	1
10	4369	2.166845469279	3
10	4375	2.166927469279	1
10	4393	2.185488135023	0
10	4400	2.185570135023	1
10	4413	2.205488135023	0
10	4420	2.205570135023	1
10	4473	2.225488135023	0
10	4480	2.225570135023	1
10	4494	2.226140802151	3
10	4500	2.226222802151	1
10	4511	2.226652802151	0
10	4518	2.226734802151	1
10	4553	2.245488135023	0
10	4560	2.245570135023	1
10	4573	2.265488135023	0
10	4580	2.265570135023	1
10	4593	2.285488135023	0
10	4600	2.285570135023	1
10	4613	2.305488135023	0
10	4620	2.305570135023	1
10	4633	2.325488135023	0
10	4640	2.325570135023	1
10	4653	2.345488135023	0
10	4660	2.345570135023	1
10	4693	2.365488135023	0
10	4700	2.365570135023	1
10	4713	2.385488135023	0
10	4720	2.385570135023	1
10	4733	2.405488135023	0
10	4740	2.405570135023	1
10	4753	2.425488135023	0
10	4760	2.425570135023	1
10	4773	2.445488135023	0
10	4780	2.445570135023	1
10	4793	2.465488135023	0
10	4800	2.465570135023	1
10	4873	2.485488135023	0
10	4880	2.485570135023	1
10	4913	2.505488135023	0
10	4920	2.505570135023	1
10	4933	2.525488135023	0
10	4940	2.525570135023	1
10	4953	2.545488135023	0
10	4960	2.545570135023	1
10	4973	2.565488135023	0
10	4980	2.565570135023	1
10	4993	2.585488135023	0
10	5000	2.585570135023	1
10	5013	2.605488135023	0
10	5020	2.605570135023	1
10	5073	2.625488135023	0
10	5080	2.625570135023	1
10	5094	2.626120802151	3
10	5100	2.626202802151	1
10	5111	2.626392802151	0
10	5118	2.626474802151	1
10	5133	2.645488135023	0
10	5140	2.645570135023	1
10	5173	2.665488135023	0
10	5180	2.665570135023	1
10	5193	2.685488135023	0
10	5200	2.685570135023	1
10	5213	2.705488135023	0
10	5220	2.705570135023	1
10	5233	2.725488135023	0
10	5240	2.725570135023	1
10	5253	2.745488135023	0
10	5260	2.745570135023	1
10	5273	2.765488135023	0
10	5280	2.765570135023	1
10	5294	2.765660802151	3
10	5300	2.765742802151	1
10	5330	2.766212802151	0
10	5337	2.766294802151	1
10	5353	2.785488135023	0
10	5360	2.785570135023	1
10	5373	2.805488135023	0
10	5380	2.805570135023	1
10	5393	2.825488135023	0
10	5400	2.825570135023	1
10	5413	2.845488135023	0
10	5420	2.845570135023	1
10	5433	2.865488135023	0
10	5440	2.865570135023	1
10	5454	2.866020802151	3
10	5460	2.866102802151	1
10	5476	2.866392802151	0
10	5483	2.866474802151	1
10	5553	2.885488135023	0
10	5560	2.885570135023	1
10	5573	2.905488135023	0
10	5580	2.905570135023	1
10	5593	2.925488135023	0
10	5600	2.925570135023	1
10	5613	2.945488135023	0
10	5620	2.945570135023	1
10	5633	2.965488135023	0
10	5640	2.965570135023	1
10	5654	2.965800802151	3
10	5660	2.965882802151	1
10	5671	2.966132802151	0
10	5678	2.966214802151	1
10	5693	2.985488135023	0
10	5700	2.985570135023	1
10	5758	3.005488135023	0
10	5765	3.005570135023	1
10	5779	3.005700802151	3
10	5785	3.005782802151	1
10	5796	3.005992802151	0
10	5803	3.006074802151	1
10	5838	3.025488135023	0
10	5845	3.025570135023	1
10	5878	3.045488135023	0
10	5885	3.045570135023	1
10	5899	3.045640802151	3
10	5905	3.045722802151	1
10	5921	3.046132802151	0
10	5928	3.046214802151	1
10	5939	3.046393469279	3
10	5945	3.046475469279	1
10	5954	3.046645469279	0
10	5961	3.046727469279	1
10	5978	3.065488135023	0
10	5985	3.065570135023	1
10	5998	3.085488135023	0
10	6005	3.085570135023	1
10	6018	3.105488135023	0
10	6025	3.105570135023	1
10	6058	3.125488135023	0
10	6065	3.125570135023	1
10	6078	3.145488135023	0
10	6085	3.145570135023	1
10	6142	3.147005469279	3
10	6148	3.147087469279	1
10	6166	3.165488135023	0
10	6173	3.165570135023	1
10	6186	3.185488135023	0
10	6193	3.185570135023	1
10	6206	3.205488135023	0
10	6213	3.205570135023	1
10	6291	3.225488135023	0
10	6298	3.225570135023	1
10	6311	3.245488135023	0
10	6318	3.245570135023	1
10	6331	3.265488135023	0
10	6338	3.265570135023	1
10	6352	3.266000802151	3
10	6358	3.266082802151	1
10	6374	3.266272802151	0
10	6381	3.266354802151	1
10	6411	3.285488135023	0
10	6418	3.285570135023	1
10	6431	3.305488135023	0
10	6438	3.305570135023	1
10	6452	3.306100802151	3
10	6458	3.306182802151	1
10	6469	3.306612802151	0
10	6476	3.306694802151	1
10	6491	3.325488135023	0
10	6498	3.325570135023	1
10	6511	3.345488135023	0
10	6518	3.345570135023	1
10	6551	3.365488135023	0
10	6558	3.365570135023	1
10	6571	3.385488135023	0
10	6578	3.385570135023	1
10	6592	3.385960802151	3
10	6598	3.386042802151	1
10	6609	3.386612802151	0
11	0	0	1
11	19	0.005488468587	3
11	25	0.005570468587	1
11	55	0.005980468587	0
11	62	0.006062468587	1
11	119	0.025488468587	3
11	125	0.025570468587	1
11	136	0.025820468587	0
11	143	0.025902468587	1
11	179	0.045488468587	3
11	185	0.045570468587	1
11	196	0.045760468587	0
11	203	0.045842468587	1
11	217	0.046433135715	3
11	223	0.046515135715	1
11	253	0.046785135715	0
11	260	0.046867135715	1
11	282	0.065488468587	3
11	288	0.065570468587	1
11	299	0.066240468587	0
11	306	0.066322468587	1
11	320	0.066953135715	3
11	326	0.067035135715	1
11	337	0.067705135715	0
11	344	0.067787135715	1
11	382	0.105488468587	3
11	388	0.105570468587	1
11	399	0.105820468587	0
11	406	0.105902468587	1
11	482	0.165488468587	3
11	488	0.165570468587	1
11	499	0.166180468587	0
11	506	0.166262468587	1
11	570	0.185488468587	3
11	576	0.185570468587	1
11	587	0.185780468587	0
11	594	0.185862468587	1
11	650	0.245488468587	3
11	656	0.245570468587	1
11	667	0.245920468587	0
11	674	0.246002468587	1
11	688	0.246333135715	3
11	694	0.246415135715	1
11	705	0.246645135715	0
11	712	0.246727135715	1
11	773	0.305488468587	3
11	779	0.305570468587	1
11	790	0.305960468587	0
11	797	0.306042468587	1
11	811	0.306593135715	3
11	817	0.306675135715	1
11	828	0.306745135715	0
11	835	0.306827135715	1
11	856	0.325488468587	3
11	862	0.325570468587	1
11	873	0.325840468587	0
11	880	0.325922468587	1
11	907	0.326353135715	3
11	919	0.326435135715	1
11	930	0.326925135715	0
11	937	0.327007135715	1
11	956	0.345488468587	3
11	962	0.345570468587	1
11	973	0.346000468587	0
11	980	0.346082468587	1
11	1016	0.385488468587	3
11	1022	0.385570468587	1
11	1033	0.386200468587	0
11	1040	0.386282468587	1
11	1076	0.405488468587	3
11	1082	0.405570468587	1
11	1093	0.406140468587	0
11	1100	0.406222468587	1
11	1136	0.445488468587	3
11	1142	0.445570468587	1
11	1153	0.445780468587	0
11	1160	0.445862468587	1
11	1174	0.446413135715	3
11	1180	0.446495135715	1
11	1213	0.447105135715	0
11	1220	0.447187135715	1
11	1285	0.505488468587	3
11	1291	0.505570468587	1
11	1302	0.505700468587	0
11	1309	0.505782468587	1
11	1345	0.545488468587	3
11	1351	0.545570468587	1
11	1362	0.545700468587	0
11	1369	0.545782468587	1
11	1405	0.585488468587	3
11	1411	0.585570468587	1
11	1422	0.585760468587	0
11	1429	0.585842468587	1
11	1505	0.605488468587	3
11	1511	0.605570468587	1
11	1522	0.606000468587	0
11	1529	0.606082468587	1
11	1605	0.665488468587	3
11	1611	0.665570468587	1
11	1622	0.666180468587	0
11	1629	0.666262468587	1
11	1645	0.685488468587	3
11	1651	0.685570468587	1
11	1662	0.685980468587	0
11	1669	0.686062468587	1
11	1685	0.705488468587	3
11	1691	0.705570468587	1
11	1702	0.705980468587	0
11	1709	0.706062468587	1
11	1765	0.765488468587	3
11	1771	0.765570468587	1
11	1782	0.765720468587	0
11	1789	0.765802468587	1
11	1985	0.945488468587	3
11	1991	0.945570468587	1
11	2002	0.945700468587	0
11	2009	0.945782468587	1
11	2065	0.985488468587	3
11	2071	0.985570468587	1
11	2082	0.985860468587	0
11	2089	0.985942468587	1
11	2185	1.085488468587	3
11	2191	1.085570468587	1
11	2202	1.085700468587	0
11	2209	1.085782468587	1
11	2305	1.165488468587	3
11	2311	1.165570468587	1
11	2322	1.166140468587	0
11	2329	1.166222468587	1
11	2345	1.185488468587	3
11	2351	1.185570468587	1
11	2362	1.186200468587	0
11	2369	1.186282468587	1
11	2383	1.186413135715	3
11	2389	1.186495135715	1
11	2400	1.186685135715	0
11	2407	1.186767135715	1
11	2431	1.205488468587	3
11	2437	1.205570468587	1
11	2448	1.206100468587	0
11	2455	1.206182468587	1
11	2469	1.206833135715	3
11	2475	1.206915135715	1
11	2518	1.207565135715	0
11	2525	1.207647135715	1
11	2544	1.225488468587	3
11	2550	1.225570468587	1
11	2561	1.225940468587	0
11	2568	1.226022468587	1
11	2604	1.265488468587	3
11	2610	1.265570468587	1
11	2621	1.265820468587	0
11	2628	1.265902468587	1
11	2703	1.286141135715	3
11	2709	1.286223135715	1
11	2720	1.286613135715	0
11	2727	1.286695135715	1
11	2744	1.305488468587	3
11	2750	1.305570468587	1
11	2761	1.305920468587	0
11	2768	1.306002468587	1
11	2804	1.325488468587	3
11	2810	1.325570468587	1
11	2821	1.325800468587	0
11	2828	1.325882468587	1
11	2904	1.385488468587	3
11	2910	1.385570468587	1
11	2921	1.385880468587	0
11	2928	1.385962468587	1
11	2947	1.386533135715	3
11	2961	1.386615135715	1
11	2978	1.387005135715	0
11	2985	1.387087135715	1
11	3110	1.505488468587	3
11	3116	1.505570468587	1
11	3127	1.505880468587	0
11	3134	1.505962468587	1
11	3210	1.545488468587	3
11	3216	1.545570468587	1
11	3227	1.545980468587	0
11	3234	1.546062468587	1
11	3248	1.546593135715	3
11	3254	1.546675135715	1
11	3265	1.547125135715	0
11	3272	1.547207135715	1
11	3336	1.605488468587	3
11	3342	1.605570468587	1
11	3353	1.605820468587	0
11	3360	1.605902468587	1
11	3421	1.625488468587	3
11	3427	1.625570468587	1
11	3438	1.626020468587	0
11	3445	1.626102468587	1
11	3481	1.645488468587	3
11	3487	1.645570468587	1
11	3498	1.645740468587	0
11	3505	1.645822468587	1
11	3581	1.725488468587	3
11	3587	1.725570468587	1
11	3598	1.725700468587	0
11	3605	1.725782468587	1
11	3641	1.745488468587	3
11	3647	1.745570468587	1
11	3658	1.746180468587	0
11	3665	1.746262468587	1
11	3701	1.785488468587	3
11	3707	1.785570468587	1
11	3718	1.786040468587	0
11	3725	1.786122468587	1
11	3761	1.825488468587	3
11	3767	1.825570468587	1
11	3778	1.825960468587	0
11	3785	1.826042468587	1
11	3799	1.826293135715	3
11	3805	1.826375135715	1
11	3816	1.826805135715	0
11	3823	1.826887135715	1
11	3964	1.965488468587	3
11	3970	1.965570468587	1
11	3981	1.966220468587	0
11	3988	1.966302468587	1
11	4004	1.985488468587	3
11	4010	1.985570468587	1
11	4021	1.985720468587	0
11	4028	1.985802468587	1
11	4127	2.045488468587	3
11	4133	2.045570468587	1
11	4144	2.045660468587	0
11	4151	2.045742468587	1
11	4312	2.165488468587	3
11	4318	2.165570468587	1
11	4329	2.165900468587	0
11	4336	2.165982468587	1
11	4350	2.166133135715	3
11	4356	2.166215135715	1
11	4367	2.166845135715	0
11	4374	2.166927135715	1
11	4415	2.205488468587	3
11	4421	2.205570468587	1
11	4432	2.206200468587	0
11	4439	2.206282468587	1
11	4475	2.225488468587	3
11	4481	2.225570468587	1
11	4492	2.226140468587	0
11	4499	2.226222468587	1
11	4513	2.226653135715	3
11	4519	2.226735135715	1
11	4530	2.227405135715	0
11	4537	2.227487135715	1
11	4655	2.345488468587	3
11	4661	2.345570468587	1
11	4672	2.346220468587	0
11	4679	2.346302468587	1
11	4795	2.465488468587	3
11	4801	2.465570468587	1
11	4812	2.466080468587	0
11	4819	2.466162468587	1
11	5015	2.605488468587	3
11	5021	2.605570468587	1
11	5032	2.605840468587	0
11	5039	2.605922468587	1
11	5075	2.625488468587	3
11	5081	2.625570468587	1
11	5092	2.626120468587	0
11	5099	2.626202468587	1
11	5135	2.645488468587	3
11	5141	2.645570468587	1
11	5152	2.645760468587	0
11	5159	2.645842468587	1
11	5275	2.765488468587	3
11	5281	2.765570468587	1
11	5292	2.765660468587	0
11	5299	2.765742468587	1
11	5435	2.865488468587	3
11	5441	2.865570468587	1
11	5452	2.866020468587	0
11	5459	2.866102468587	1
11	5492	2.866493135715	3
11	5498	2.866575135715	1
11	5528	2.867185135715	0
11	5535	2.867267135715	1
11	5635	2.965488468587	3
11	5641	2.965570468587	1
11	5652	2.965800468587	0
11	5659	2.965882468587	1
11	5695	2.985488468587	3
11	5701	2.985570468587	1
11	5712	2.986200468587	0
11	5719	2.986282468587	1
11	5760	3.005488468587	3
11	5766	3.005570468587	1
11	5777	3.005700468587	0
11	5784	3.005782468587	1
11	5798	3.005993135715	3
11	5804	3.006075135715	1
11	5815	3.006345135715	0
11	5822	3.006427135715	1
11	5840	3.025488468587	3
11	5846	3.025570468587	1
11	5857	3.026020468587	0
11	5864	3.026102468587	1
11	5880	3.045488468587	3
11	5886	3.045570468587	1
11	5897	3.045640468587	0
11	5904	3.045722468587	1
11	6020	3.105488468587	3
11	6026	3.105570468587	1
11	6037	3.106240468587	0
11	6044	3.106322468587	1
11	6080	3.145488468587	3
11	6086	3.145570468587	1
11	6097	3.146060468587	0
11	6104	3.146142468587	1
11	6123	3.146633135715	3
11	6129	3.146715135715	1
11	6140	3.147005135715	0
11	6147	3.147087135715	1
11	6333	3.265488468587	3
11	6339	3.265570468587	1
11	6350	3.266000468587	0
11	6357	3.266082468587	1
11	6433	3.305488468587	3
11	6439	3.305570468587	1
11	6450	3.306100468587	0
11	6457	3.306182468587	1
11	6573	3.385488468587	3
11	6579	3.385570468587	1
11	6590	3.385960468587	0
11	6597	3.386042468587	1
12	0	0	1
12	20	0.005488802151	3
12	31	0.005570802151	1
12	41	0.005700802151	0
12	48	0.005782802151	1
12	58	0.005980802151	3
12	64	0.006062802151	1
12	87	0.006292802151	0
12	100	0.006374802151	1
12	199	0.045760802151	3
12	205	0.045842802151	1
12	215	0.046432802151	0
12	222	0.046514802151	1
12	256	0.046785469279	3
12	262	0.046867469279	1
12	302	0.066240802151	3
12	308	0.066322802151	1
12	318	0.066952802151	0
12	325	0.067034802151	1
12	502	0.166180802151	3
12	508	0.166262802151	1
12	518	0.166892802151	0
12	525	0.166974802151	1
12	539	0.167605469279	3
12	545	0.167687469279	1
12	670	0.245920802151	3
12	676	0.246002802151	1
12	686	0.246332802151	0
12	693	0.246414802151	1
12	876	0.325840802151	3
12	882	0.325922802151	1
12	897	0.326312802151	0
12	912	0.326394802151	1
12	1156	0.445780802151	3
12	1162	0.445862802151	1
12	1172	0.446412802151	0
12	1179	0.446494802151	1
12	1199	0.446866136407	3
12	1205	0.446948136407	1
12	1216	0.447105469279	3
12	1222	0.447187469279	1
12	1425	0.585760802151	3
12	1431	0.585842802151	1
12	1446	0.586132802151	0
12	1453	0.586214802151	1
12	2403	1.186685469279	3
12	2409	1.186767469279	1
12	2451	1.206100802151	3
12	2457	1.206182802151	1
12	2467	1.206832802151	0
12	2474	1.206914802151	1
12	2498	1.207425469279	3
12	2504	1.207507469279	1
12	2624	1.265820802151	3
12	2630	1.265902802151	1
12	2640	1.266112802151	0
12	2647	1.266194802151	1
12	2685	1.285488802151	3
12	2691	1.285570802151	1
12	2701	1.286140802151	0
12	2708	1.286222802151	1
12	2764	1.305920802151	3
12	2770	1.306002802151	1
12	2780	1.306212802151	0
12	2787	1.306294802151	1
12	2924	1.385880802151	3
12	2930	1.385962802151	1
12	2953	1.386592802151	0
12	2971	1.386674802151	1
12	2981	1.387005469279	3
12	2987	1.387087469279	1
12	3130	1.505880802151	3
12	3136	1.505962802151	1
12	3151	1.506132802151	0
12	3158	1.506214802151	1
12	3230	1.545980802151	3
12	3236	1.546062802151	1
12	3246	1.546592802151	0
12	3253	1.546674802151	1
12	3268	1.547125469279	3
12	3274	1.547207469279	1
12	3356	1.605820802151	3
12	3362	1.605902802151	1
12	3372	1.606152802151	0
12	3379	1.606234802151	1
12	3522	1.665488802151	2
12	3528	1.665570802151	1
12	3781	1.825960802151	3
12	3787	1.826042802151	1
12	3797	1.826292802151	0
12	3804	1.826374802151	1
12	4024	1.985720802151	3
12	4030	1.985802802151	1
12	4040	1.985932802151	0
12	4047	1.986014802151	1
12	4061	1.986125469279	3
12	4067	1.986207469279	1
12	4248	2.145488802151	3
12	4254	2.145570802151	1
12	4264	2.146160802151	0
12	4271	2.146242802151	1
12	4435	2.206200802151	3
12	4441	2.206282802151	1
12	4451	2.206572802151	0
12	4458	2.206654802151	1
12	4815	2.466080802151	3
12	4821	2.466162802151	1
12	4831	2.466512802151	0
12	4838	2.466594802151	1
12	4876	2.485488802151	3
12	4882	2.485570802151	1
12	4892	2.485760802151	0
12	4899	2.485842802151	1
12	5035	2.605840802151	3
12	5041	2.605922802151	1
12	5051	2.606072802151	0
12	5058	2.606154802151	1
12	5295	2.765660802151	3
12	5301	2.765742802151	1
12	5316	2.765872802151	0
12	5323	2.765954802151	1
12	5455	2.866020802151	3
12	5461	2.866102802151	1
12	5490	2.866492802151	0
12	5497	2.866574802151	1
12	5900	3.045640802151	3
12	5906	3.045722802151	1
12	5935	3.046392802151	0
12	5942	3.046474802151	1
12	6100	3.146060802151	3
12	6106	3.146142802151	1
12	6121	3.146632802151	0
12	6128	3.146714802151	1
12	6209	3.205488802151	3
12	6215	3.205570802151	1
12	6244	3.206100802151	0
12	6251	3.206182802151	1
12	6353	3.266000802151	3
12	6359	3.266082802151	1
12	6388	3.266612802151	0
12	6395	3.266694802151	1
12	6514	3.345488802151	3
12	6520	3.345570802151	1
12	6530	3.345940802151	0
12	6537	3.346022802151	1
13	0	0	1
13	218	0.046433135715	3
13	224	0.046515135715	1
13	239	0.046645135715	0
13	246	0.046727135715	1
13	521	0.166893135715	3
13	527	0.166975135715	1
13	537	0.167605135715	0
13	544	0.167687135715	1
13	1449	0.586133135715	3
13	1455	0.586215135715	1
13	1479	0.586805135715	0
13	1486	0.586887135715	1
13	2470	1.206833135715	3
13	2476	1.206915135715	1
13	2496	1.207425135715	0
13	2503	1.207507135715	1
13	2643	1.266113135715	3
13	2649	1.266195135715	1
13	2659	1.266265135715	0
13	2666	1.266347135715	1
13	3375	1.606153135715	3
13	3381	1.606235135715	1
13	3391	1.606605135715	0
13	3398	1.606687135715	1
13	4043	1.985933135715	3
13	4049	1.986015135715	1
13	4059	1.986125135715	0
13	4066	1.986207135715	1
13	4267	2.146161135715	3
13	4273	2.146243135715	1
13	4283	2.146633135715	0
13	4290	2.146715135715	1
13	4834	2.466513135715	3
13	4840	2.466595135715	1
13	4850	2.467145135715	0
13	4857	2.467227135715	1
13	5493	2.866493135715	3
13	5499	2.866575135715	1
13	5514	2.867025135715	0
13	5521	2.867107135715	1
13	5716	2.986201135715	3
13	5722	2.986283135715	1
13	5731	2.986613135715	0
13	5738	2.986695135715	1
13	6210	3.205489135715	3
13	6221	3.205571135715	1
13	6230	3.205841135715	0
13	6237	3.205923135715	1
13	6247	3.206101135715	3
13	6253	3.206183135715	1
13	6263	3.206813135715	0
13	6270	3.206895135715	1
14	0	0	1
14	540	0.167605469279	3
14	546	0.167687469279	1
14	2472	1.206833469279	3
14	2488	1.206915469279	1
14	2499	1.207425469279	3
14	2505	1.207507469279	1
14	3394	1.606605469279	3
14	3400	1.606687469279	1
14	4286	2.146633469279	3
14	4292	2.146715469279	1
14	5734	2.986613469279	3
14	5740	2.986695469279	1
14	6102	3.146061469279	3
14	6113	3.146143469279	1
14	6266	3.206813469279	3
14	6272	3.206895469279	1
15	0	0	31
16	0	0	31
17	0	0	31
18	0	0	31
19	0	0	31
20	9	0.005488135023	100
20	110	0.025488135023	100
20	170	0.045488135023	100
20	273	0.065488135023	100
20	353	0.085488135023	100
20	373	0.105488135023	100
20	433	0.125488135023	100
20	453	0.145488135023	100
20	473	0.165488135023	100
20	561	0.185488135023	100
20	601	0.205488135023	100
20	621	0.225488135023	100
20	641	0.245488135023	100
20	724	0.265488135023	100
20	744	0.285488135023	100
20	764	0.305488135023	100
20	847	0.325488135023	100
20	947	0.345488135023	100
20	987	0.365488135023	100
20	1007	0.385488135023	100
20	1067	0.405488135023	100
20	1107	0.425488135023	100
20	1127	0.445488135023	100
20	1236	0.465488135023	100
20	1256	0.485488135023	100
20	1276	0.505488135023	100
20	1316	0.525488135023	100
20	1336	0.545488135023	100
20	1376	0.565488135023	100
20	1396	0.585488135023	100
20	1496	0.605488135023	100
20	1556	0.625488135023	100
20	1576	0.645488135023	100
20	1596	0.665488135023	100
20	1636	0.685488135023	100
20	1676	0.705488135023	100
20	1716	0.725488135023	100
20	1736	0.745488135023	100
20	1756	0.765488135023	100
20	1816	0.785488135023	100
20	1836	0.805488135023	100
20	1856	0.825488135023	100
20	1876	0.845488135023	100
20	1896	0.865488135023	100
20	1916	0.885488135023	100
20	1936	0.905488135023	100
20	1956	0.925488135023	100
20	1976	0.945488135023	100
20	2036	0.965488135023	100
20	2056	0.985488135023	100
20	2096	1.005488135023	100
20	2116	1.025488135023	100
20	2136	1.045488135023	100
20	2156	1.065488135023	100
20	2176	1.085488135023	100
20	2236	1.105488135023	100
20	2256	1.125488135023	100
20	2276	1.145488135023	100
20	2296	1.165488135023	100
20	2336	1.185488135023	100
20	2422	1.205488135023	100
20	2535	1.225488135023	100
20	2575	1.245488135023	100
20	2595	1.265488135023	100
20	2675	1.285488135023	100
20	2735	1.305488135023	100
20	2795	1.325488135023	100
20	2855	1.345488135023	100
20	2875	1.365488135023	100
20	2895	1.385488135023	100
20	3001	1.405488135023	100
20	3021	1.425488135023	100
20	3041	1.445488135023	100
20	3061	1.465488135023	100
20	3081	1.485488135023	100
20	3101	1.505488135023	100
20	3181	1.525488135023	100
20	3201	1.545488135023	100
20	3287	1.565488135023	100
20	3307	1.585488135023	100
20	3327	1.605488135023	100
20	3412	1.625488135023	100
20	3472	1.645488135023	100
20	3512	1.665488135023	100
20	3532	1.685488135023	100
20	3552	1.705488135023	100
20	3572	1.725488135023	100
20	3632	1.745488135023	100
20	3672	1.765488135023	100
20	3692	1.785488135023	100
20	3732	1.805488135023	100
20	3752	1.825488135023	100
20	3835	1.845488135023	100
20	3855	1.865488135023	100
20	3875	1.885488135023	100
20	3895	1.905488135023	100
20	3915	1.925488135023	100
20	3935	1.945488135023	100
20	3955	1.965488135023	100
20	3995	1.985488135023	100
20	4078	2.005488135023	100
20	4098	2.025488135023	100
20	4118	2.045488135023	100
20	4158	2.065488135023	100
20	4178	2.085488135023	100
20	4198	2.105488135023	100
20	4218	2.125488135023	100
20	4238	2.145488135023	100
20	4303	2.165488135023	100
20	4386	2.185488135023	100
20	4406	2.205488135023	100
20	4466	2.225488135023	100
20	4546	2.245488135023	100
20	4566	2.265488135023	100
20	4586	2.285488135023	100
20	4606	2.305488135023	100
20	4626	2.325488135023	100
20	4646	2.345488135023	100
20	4686	2.365488135023	100
20	4706	2.385488135023	100
20	4726	2.405488135023	100
20	4746	2.425488135023	100
20	4766	2.445488135023	100
20	4786	2.465488135023	100
20	4866	2.485488135023	100
20	4906	2.505488135023	100
20	4926	2.525488135023	100
20	4946	2.545488135023	100
20	4966	2.565488135023	100
20	4986	2.585488135023	100
20	5006	2.605488135023	100
20	5066	2.625488135023	100
20	5126	2.645488135023	100
20	5166	2.665488135023	100
20	5186	2.685488135023	100
20	5206	2.705488135023	100
20	5226	2.725488135023	100
20	5246	2.745488135023	100
20	5266	2.765488135023	100
20	5346	2.785488135023	100
20	5366	2.805488135023	100
20	5386	2.825488135023	100
20	5406	2.845488135023	100
20	5426	2.865488135023	100
20	5546	2.885488135023	100
20	5566	2.905488135023	100
20	5586	2.925488135023	100
20	5606	2.945488135023	100
20	5626	2.965488135023	100
20	5686	2.985488135023	100
20	5751	3.005488135023	100
20	5831	3.025488135023	100
20	5871	3.045488135023	100
20	5971	3.065488135023	100
20	5991	3.085488135023	100
20	6011	3.105488135023	100
20	6051	3.125488135023	100
20	6071	3.145488135023	100
20	6159	3.165488135023	100
20	6179	3.185488135023	100
20	6199	3.205488135023	100
20	6284	3.225488135023	100
20	6304	3.245488135023	100
20	6324	3.265488135023	100
20	6404	3.285488135023	100
20	6424	3.305488135023	100
20	6484	3.325488135023	100
20	6504	3.345488135023	100
20	6544	3.365488135023	100
20	6564	3.385488135023	100
21	11	0.005488135023	108
21	111	0.025488135023	108
21	171	0.045488135023	108
21	274	0.065488135023	108
21	354	0.085488135023	108
21	374	0.105488135023	108
21	434	0.125488135023	108
21	454	0.145488135023	108
21	474	0.165488135023	108
21	562	0.185488135023	108
21	602	0.205488135023	108
21	622	0.225488135023	108
21	642	0.245488135023	108
21	725	0.265488135023	108
21	745	0.285488135023	108
21	765	0.305488135023	108
21	848	0.325488135023	108
21	948	0.345488135023	108
21	988	0.365488135023	108
21	1008	0.385488135023	108
21	1068	0.405488135023	108
21	1108	0.425488135023	108
21	1128	0.445488135023	108
21	1237	0.465488135023	108
21	1257	0.485488135023	108
21	1277	0.505488135023	108
21	1317	0.525488135023	108
21	1337	0.545488135023	108
21	1377	0.565488135023	108
21	1397	0.585488135023	108
21	1497	0.605488135023	108
21	1557	0.625488135023	108
21	1577	0.645488135023	108
21	1597	0.665488135023	108
21	1637	0.685488135023	108
21	1677	0.705488135023	108
21	1717	0.725488135023	108
21	1737	0.745488135023	108
21	1757	0.765488135023	108
21	1817	0.785488135023	108
21	1837	0.805488135023	108
21	1857	0.825488135023	108
21	1877	0.845488135023	108
21	1897	0.865488135023	108
21	1917	0.885488135023	108
21	1937	0.905488135023	108
21	1957	0.925488135023	108
21	1977	0.945488135023	108
21	2037	0.965488135023	108
21	2057	0.985488135023	108
21	2097	1.005488135023	108
21	2117	1.025488135023	108
21	2137	1.045488135023	108
21	2157	1.065488135023	108
21	2177	1.085488135023	108
21	2237	1.105488135023	108
21	2257	1.125488135023	108
21	2277	1.145488135023	108
21	2297	1.165488135023	108
21	2337	1.185488135023	108
21	2423	1.205488135023	108
21	2536	1.225488135023	108
21	2576	1.245488135023	108
21	2596	1.265488135023	108
21	2676	1.285488135023	108
21	2736	1.305488135023	108
21	2796	1.325488135023	108
21	2856	1.345488135023	108
21	2876	1.365488135023	108
21	2896	1.385488135023	108
21	3002	1.405488135023	108
21	3022	1.425488135023	108
21	3042	1.445488135023	108
21	3062	1.465488135023	108
21	3082	1.485488135023	108
21	3102	1.505488135023	108
21	3182	1.525488135023	108
21	3202	1.545488135023	108
21	3288	1.565488135023	108
21	3308	1.585488135023	108
21	3328	1.605488135023	108
21	3413	1.625488135023	108
21	3473	1.645488135023	108
21	3513	1.665488135023	108
21	3533	1.685488135023	108
21	3553	1.705488135023	108
21	3573	1.725488135023	108
21	3633	1.745488135023	108
21	3673	1.765488135023	108
21	3693	1.785488135023	108
21	3733	1.805488135023	108
21	3753	1.825488135023	108
21	3836	1.845488135023	108
21	3856	1.865488135023	108
21	3876	1.885488135023	108
21	3896	1.905488135023	108
21	3916	1.925488135023	108
21	3936	1.945488135023	108
21	3956	1.965488135023	108
21	3996	1.985488135023	108
21	4079	2.005488135023	108
21	4099	2.025488135023	108
21	4119	2.045488135023	108
21	4159	2.065488135023	108
21	4179	2.085488135023	108
21	4199	2.105488135023	108
21	4219	2.125488135023	108
21	4239	2.145488135023	108
21	4304	2.165488135023	108
21	4387	2.185488135023	108
21	4407	2.205488135023	108
21	4467	2.225488135023	108
21	4547	2.245488135023	108
21	4567	2.265488135023	108
21	4587	2.285488135023	108
21	4607	2.305488135023	108
21	4627	2.325488135023	108
21	4647	2.345488135023	108
21	4687	2.365488135023	108
21	4707	2.385488135023	108
21	4727	2.405488135023	108
21	4747	2.425488135023	108
21	4767	2.445488135023	108
21	4787	2.465488135023	108
21	4867	2.485488135023	108
21	4907	2.505488135023	108
21	4927	2.525488135023	108
21	4947	2.545488135023	108
21	4967	2.565488135023	108
21	4987	2.585488135023	108
21	5007	2.605488135023	108
21	5067	2.625488135023	108
21	5127	2.645488135023	108
21	5167	2.665488135023	108
21	5187	2.685488135023	108
21	5207	2.705488135023	108
21	5227	2.725488135023	108
21	5247	2.745488135023	108
21	5267	2.765488135023	108
21	5347	2.785488135023	108
21	5367	2.805488135023	108
21	5387	2.825488135023	108
21	5407	2.845488135023	108
21	5427	2.865488135023	108
21	5547	2.885488135023	108
21	5567	2.905488135023	108
21	5587	2.925488135023	108
21	5607	2.945488135023	108
21	5627	2.965488135023	108
21	5687	2.985488135023	108
21	5752	3.005488135023	108
21	5832	3.025488135023	108
21	5872	3.045488135023	108
21	5972	3.065488135023	108
21	5992	3.085488135023	108
21	6012	3.105488135023	108
21	6052	3.125488135023	108
21	6072	3.145488135023	108
21	6160	3.165488135023	108
21	6180	3.185488135023	108
21	6200	3.205488135023	108
21	6285	3.225488135023	108
21	6305	3.245488135023	108
21	6325	3.265488135023	108
21	6405	3.285488135023	108
21	6425	3.305488135023	108
21	6485	3.325488135023	108
21	6505	3.345488135023	108
21	6545	3.365488135023	108
21	6565	3.385488135023	108
22	14	0.005488135023	126
22	73	0.006062802151	126
22	114	0.025488135023	126
22	150	0.025902802151	126
22	174	0.045488135023	126
22	277	0.065488135023	126
22	357	0.085488135023	126
22	377	0.105488135023	126
22	413	0.105902802151	126
22	437	0.125488135023	126
22	457	0.145488135023	126
22	477	0.165488135023	126
22	565	0.185488135023	126
22	605	0.205488135023	126
22	625	0.225488135023	126
22	645	0.245488135023	126
22	728	0.265488135023	126
22	748	0.285488135023	126
22	768	0.305488135023	126
22	804	0.306042802151	126
22	851	0.325488135023	126
22	891	0.325922802151	126
22	951	0.345488135023	126
22	991	0.365488135023	126
22	1011	0.385488135023	126
22	1047	0.386282802151	126
22	1071	0.405488135023	126
22	1111	0.425488135023	126
22	1131	0.445488135023	126
22	1193	0.446495469279	126
22	1240	0.465488135023	126
22	1260	0.485488135023	126
22	1280	0.505488135023	126
22	1320	0.525488135023	126
22	1340	0.545488135023	126
22	1380	0.565488135023	126
22	1400	0.585488135023	126
22	1440	0.585842802151	126
22	1500	0.605488135023	126
22	1536	0.606082802151	126
22	1560	0.625488135023	126
22	1580	0.645488135023	126
22	1600	0.665488135023	126
22	1640	0.685488135023	126
22	1680	0.705488135023	126
22	1720	0.725488135023	126
22	1740	0.745488135023	126
22	1760	0.765488135023	126
22	1796	0.765802802151	126
22	1820	0.785488135023	126
22	1840	0.805488135023	126
22	1860	0.825488135023	126
22	1880	0.845488135023	126
22	1900	0.865488135023	126
22	1920	0.885488135023	126
22	1940	0.905488135023	126
22	1960	0.925488135023	126
22	1980	0.945488135023	126
22	2016	0.945782802151	126
22	2040	0.965488135023	126
22	2060	0.985488135023	126
22	2100	1.005488135023	126
22	2120	1.025488135023	126
22	2140	1.045488135023	126
22	2160	1.065488135023	126
22	2180	1.085488135023	126
22	2216	1.085782802151	126
22	2240	1.105488135023	126
22	2260	1.125488135023	126
22	2280	1.145488135023	126
22	2300	1.165488135023	126
22	2340	1.185488135023	126
22	2376	1.186282802151	126
22	2426	1.205488135023	126
22	2539	1.225488135023	126
22	2579	1.245488135023	126
22	2599	1.265488135023	126
22	2679	1.285488135023	126
22	2739	1.305488135023	126
22	2799	1.325488135023	126
22	2835	1.325882802151	126
22	2859	1.345488135023	126
22	2879	1.365488135023	126
22	2899	1.385488135023	126
22	2939	1.385962802151	126
22	3005	1.405488135023	126
22	3025	1.425488135023	126
22	3045	1.445488135023	126
22	3065	1.465488135023	126
22	3085	1.485488135023	126
22	3105	1.505488135023	126
22	3145	1.505962802151	126
22	3185	1.525488135023	126
22	3205	1.545488135023	126
22	3291	1.565488135023	126
22	3311	1.585488135023	126
22	3331	1.605488135023	126
22	3416	1.625488135023	126
22	3452	1.626102802151	126
22	3476	1.645488135023	126
22	3516	1.665488135023	126
22	3536	1.685488135023	126
22	3556	1.705488135023	126
22	3576	1.725488135023	126
22	3612	1.725782802151	126
22	3636	1.745488135023	126
22	3676	1.765488135023	126
22	3696	1.785488135023	126
22	3736	1.805488135023	126
22	3756	1.825488135023	126
22	3839	1.845488135023	126
22	3859	1.865488135023	126
22	3879	1.885488135023	126
22	3899	1.905488135023	126
22	3919	1.925488135023	126
22	3939	1.945488135023	126
22	3959	1.965488135023	126
22	3999	1.985488135023	126
22	4082	2.005488135023	126
22	4102	2.025488135023	126
22	4122	2.045488135023	126
22	4162	2.065488135023	126
22	4182	2.085488135023	126
22	4202	2.105488135023	126
22	4222	2.125488135023	126
22	4242	2.145488135023	126
22	4307	2.165488135023	126
22	4343	2.165982802151	126
22	4390	2.185488135023	126
22	4410	2.205488135023	126
22	4470	2.225488135023	126
22	4506	2.226222802151	126
22	4550	2.245488135023	126
22	4570	2.265488135023	126
22	4590	2.285488135023	126
22	4610	2.305488135023	126
22	4630	2.325488135023	126
22	4650	2.345488135023	126
22	4690	2.365488135023	126
22	4710	2.385488135023	126
22	4730	2.405488135023	126
[...]
80	2931	1.385962802151	154
80	2988	1.387087469279	154
80	3137	1.505962802151	154
80	3275	1.547207469279	154
80	3448	1.626102802151	154
80	3608	1.725782802151	154
80	3826	1.826887469279	154
80	4339	2.165982802151	154
80	4377	2.166927469279	154
80	4502	2.226222802151	154
80	5102	2.626202802151	154
80	5302	2.765742802151	154
80	5462	2.866102802151	154
80	5662	2.965882802151	154
80	5787	3.005782802151	154
80	5907	3.045722802151	154
80	5947	3.046475469279	154
80	6150	3.147087469279	154
80	6360	3.266082802151	154
80	6460	3.306182802151	154
80	6600	3.386042802151	154
81	65	0.006062802151	154
81	146	0.025902802151	154
81	409	0.105902802151	154
81	715	0.246727469279	154
81	800	0.306042802151	154
81	838	0.306827469279	154
81	883	0.325922802151	154
81	1043	0.386282802151	154
81	1189	0.446495469279	154
81	1223	0.447187469279	154
81	1432	0.585842802151	154
81	1532	0.606082802151	154
81	1792	0.765802802151	154
81	2012	0.945782802151	154
81	2212	1.085782802151	154
81	2372	1.186282802151	154
81	2410	1.186767469279	154
81	2831	1.325882802151	154
81	2931	1.385962802151	154
81	2988	1.387087469279	154
81	3137	1.505962802151	154
81	3275	1.547207469279	154
81	3448	1.626102802151	154
81	3608	1.725782802151	154
81	3826	1.826887469279	154
81	4339	2.165982802151	154
81	4377	2.166927469279	154
81	4502	2.226222802151	154
81	5102	2.626202802151	154
81	5302	2.765742802151	154
81	5462	2.866102802151	154
81	5662	2.965882802151	154
81	5787	3.005782802151	154
81	5907	3.045722802151	154
81	5947	3.046475469279	154
81	6150	3.147087469279	154
81	6360	3.266082802151	154
81	6460	3.306182802151	154
81	6600	3.386042802151	154
82	65	0.006062802151	154
82	146	0.025902802151	154
82	409	0.105902802151	154
82	715	0.246727469279	154
82	800	0.306042802151	154
82	838	0.306827469279	154
82	883	0.325922802151	154
82	1043	0.386282802151	154
82	1189	0.446495469279	154
82	1223	0.447187469279	154
82	1432	0.585842802151	154
82	1532	0.606082802151	154
82	1792	0.765802802151	154
82	2012	0.945782802151	154
82	2212	1.085782802151	154
82	2372	1.186282802151	154
82	2410	1.186767469279	154
82	2831	1.325882802151	154
82	2931	1.385962802151	154
82	2988	1.387087469279	154
82	3137	1.505962802151	154
82	3275	1.547207469279	154
82	3448	1.626102802151	154
82	3608	1.725782802151	154
82	3826	1.826887469279	154
82	4339	2.165982802151	154
82	4377	2.166927469279	154
82	4502	2.226222802151	154
82	5102	2.626202802151	154
82	5302	2.765742802151	154
82	5462	2.866102802151	154
82	5662	2.965882802151	154
82	5787	3.005782802151	154
82	5907	3.045722802151	154
82	5947	3.046475469279	154
82	6150	3.147087469279	154
82	6360	3.266082802151	154
82	6460	3.306182802151	154
82	6600	3.386042802151	154
83	65	0.006062802151	154
83	146	0.025902802151	154
83	409	0.105902802151	154
83	715	0.246727469279	154
83	800	0.306042802151	154
83	838	0.306827469279	154
83	883	0.325922802151	154
83	1043	0.386282802151	154
83	1189	0.446495469279	154
83	1223	0.447187469279	154
83	1432	0.585842802151	154
83	1532	0.606082802151	154
83	1792	0.765802802151	154
83	2012	0.945782802151	154
83	2212	1.085782802151	154
83	2372	1.186282802151	154
83	2410	1.186767469279	154
83	2831	1.325882802151	154
83	2931	1.385962802151	154
83	2988	1.387087469279	154
83	3137	1.505962802151	154
83	3275	1.547207469279	154
83	3448	1.626102802151	154
83	3608	1.725782802151	154
83	3826	1.826887469279	154
83	4339	2.165982802151	154
83	4377	2.166927469279	154
83	4502	2.226222802151	154
83	5102	2.626202802151	154
83	5302	2.765742802151	154
83	5462	2.866102802151	154
83	5662	2.965882802151	154
83	5787	3.005782802151	154
83	5907	3.045722802151	154
83	5947	3.046475469279	154
83	6150	3.147087469279	154
83	6360	3.266082802151	154
83	6460	3.306182802151	154
83	6600	3.386042802151	154
84	65	0.006062802151	126
84	146	0.025902802151	126
84	409	0.105902802151	126
84	715	0.246727469279	126
84	800	0.306042802151	126
84	838	0.306827469279	126
84	883	0.325922802151	126
84	1043	0.386282802151	126
84	1189	0.446495469279	126
84	1223	0.447187469279	126
84	1432	0.585842802151	126
84	1532	0.606082802151	126
84	1792	0.765802802151	126
84	2012	0.945782802151	126
84	2212	1.085782802151	126
84	2372	1.186282802151	126
84	2410	1.186767469279	126
84	2831	1.325882802151	126
84	2931	1.385962802151	126
84	2988	1.387087469279	126
84	3137	1.505962802151	126
84	3275	1.547207469279	126
84	3448	1.626102802151	126
84	3608	1.725782802151	126
84	3826	1.826887469279	126
84	4339	2.165982802151	126
84	4377	2.166927469279	126
84	4502	2.226222802151	126
84	5102	2.626202802151	126
84	5302	2.765742802151	126
84	5462	2.866102802151	126
84	5662	2.965882802151	126
84	5787	3.005782802151	126
84	5907	3.045722802151	126
84	5947	3.046475469279	126
84	6150	3.147087469279	126
84	6360	3.266082802151	126
84	6460	3.306182802151	126
84	6600	3.386042802151	126
85	226	0.046515135715	154
85	528	0.166975135715	154
85	1456	0.586215135715	154
85	2478	1.206915135715	154
85	2650	1.266195135715	154
85	3382	1.606235135715	154
85	4050	1.986015135715	154
85	4274	2.146243135715	154
85	4841	2.466595135715	154
85	5501	2.866575135715	154
85	5723	2.986283135715	154
85	6222	3.205571135715	154
85	6254	3.206183135715	154
86	226	0.046515135715	154
86	528	0.166975135715	154
86	1456	0.586215135715	154
86	2478	1.206915135715	154
86	2650	1.266195135715	154
86	3382	1.606235135715	154
86	4050	1.986015135715	154
86	4274	2.146243135715	154
86	4841	2.466595135715	154
86	5501	2.866575135715	154
86	5723	2.986283135715	154
86	6222	3.205571135715	154
86	6254	3.206183135715	154
87	226	0.046515135715	154
87	528	0.166975135715	154
87	1456	0.586215135715	154
87	2478	1.206915135715	154
87	2650	1.266195135715	154
87	3382	1.606235135715	154
87	4050	1.986015135715	154
87	4274	2.146243135715	154
87	4841	2.466595135715	154
87	5501	2.866575135715	154
87	5723	2.986283135715	154
87	6222	3.205571135715	154
87	6254	3.206183135715	154
88	226	0.046515135715	154
88	528	0.166975135715	154
88	1456	0.586215135715	154
88	2478	1.206915135715	154
88	2650	1.266195135715	154
88	3382	1.606235135715	154
88	4050	1.986015135715	154
88	4274	2.146243135715	154
88	4841	2.466595135715	154
88	5501	2.866575135715	154
88	5723	2.986283135715	154
88	6222	3.205571135715	154
88	6254	3.206183135715	154
89	226	0.046515135715	126
89	528	0.166975135715	126
89	1456	0.586215135715	126
89	2478	1.206915135715	126
89	2650	1.266195135715	126
89	3382	1.606235135715	126
89	4050	1.986015135715	126
89	4274	2.146243135715	126
89	4841	2.466595135715	126
89	5501	2.866575135715	126
89	5723	2.986283135715	126
89	6222	3.205571135715	126
89	6254	3.206183135715	126
90	234	0.046515135715	126
90	532	0.166975135715	126
90	1460	0.586215135715	126
90	2486	1.206915135715	126
90	2654	1.266195135715	126
90	3386	1.606235135715	126
90	4054	1.986015135715	126
90	4278	2.146243135715	126
90	4845	2.466595135715	126
90	5509	2.866575135715	126
90	5727	2.986283135715	126
90	6226	3.205571135715	126
90	6258	3.206183135715	126
91	234	0.046515135715	154
91	532	0.166975135715	154
91	1460	0.586215135715	154
91	2486	1.206915135715	154
91	2654	1.266195135715	154
91	3386	1.606235135715	154
91	4054	1.986015135715	154
91	4278	2.146243135715	154
91	4845	2.466595135715	154
91	5509	2.866575135715	154
91	5727	2.986283135715	154
91	6226	3.205571135715	154
91	6258	3.206183135715	154
92	234	0.046515135715	1
92	238	0.046645135715	0
92	532	0.166975135715	1
92	536	0.167605135715	0
92	1460	0.586215135715	1
92	1478	0.586805135715	0
92	2486	1.206915135715	1
92	2495	1.207425135715	0
92	2654	1.266195135715	1
92	2658	1.266265135715	0
92	3386	1.606235135715	1
92	3390	1.606605135715	0
92	4054	1.986015135715	1
92	4058	1.986125135715	0
92	4278	2.146243135715	1
92	4282	2.146633135715	0
92	4845	2.466595135715	1
92	4849	2.467145135715	0
92	5509	2.866575135715	1
92	5513	2.867025135715	0
92	5727	2.986283135715	1
92	5730	2.986613135715	0
92	6226	3.205571135715	1
92	6229	3.205841135715	0
92	6258	3.206183135715	1
92	6262	3.206813135715	0
93	234	0.046515135715	4
93	532	0.166975135715	29
93	1460	0.586215135715	27
93	2486	1.206915135715	23
93	2654	1.266195135715	1
93	3386	1.606235135715	16
93	4054	1.986015135715	3
93	4278	2.146243135715	17
93	4845	2.466595135715	25
93	5509	2.866575135715	20
93	5727	2.986283135715	14
93	6226	3.205571135715	11
93	6258	3.206183135715	29
94	234	0.046515135715	1
94	237	0.046645135715	0
94	532	0.166975135715	1
94	535	0.167605135715	0
94	1460	0.586215135715	1
94	1477	0.586805135715	0
94	2486	1.206915135715	1
94	2494	1.207425135715	0
94	2654	1.266195135715	1
94	2657	1.266265135715	0
94	3386	1.606235135715	1
94	3389	1.606605135715	0
94	4054	1.986015135715	1
94	4057	1.986125135715	0
94	4278	2.146243135715	1
94	4281	2.146633135715	0
94	4845	2.466595135715	1
94	4848	2.467145135715	0
94	5509	2.866575135715	1
94	5512	2.867025135715	0
94	5727	2.986283135715	1
94	5729	2.986613135715	0
94	6226	3.205571135715	1
94	6228	3.205841135715	0
94	6258	3.206183135715	1
94	6261	3.206813135715	0
95	238	0.046645135715	154
95	536	0.167605135715	154
95	1478	0.586805135715	154
95	2495	1.207425135715	154
95	2658	1.266265135715	154
95	3390	1.606605135715	154
95	4058	1.986125135715	154
95	4282	2.146633135715	154
95	4849	2.467145135715	154
95	5513	2.867025135715	154
95	5730	2.986613135715	154
95	6229	3.205841135715	154
95	6262	3.206813135715	154
96	238	0.046645135715	0.00013
96	536	0.167605135715	0.00063
96	1478	0.586805135715	0.00059
96	2495	1.207425135715	0.00051
96	2658	1.266265135715	7e-05
96	3390	1.606605135715	0.00037
96	4058	1.986125135715	0.00011
96	4282	2.146633135715	0.00039
96	4849	2.467145135715	0.00055
96	5513	2.867025135715	0.00045
96	5730	2.986613135715	0.00033
96	6229	3.205841135715	0.00027
96	6262	3.206813135715	0.00063
97	238	0.046645135715	1
97	245	0.046727135715	0
97	536	0.167605135715	1
97	543	0.167687135715	0
97	1478	0.586805135715	1
97	1485	0.586887135715	0
97	2495	1.207425135715	1
97	2502	1.207507135715	0
97	2658	1.266265135715	1
97	2665	1.266347135715	0
97	3390	1.606605135715	1
97	3397	1.606687135715	0
97	4058	1.986125135715	1
97	4065	1.986207135715	0
97	4282	2.146633135715	1
97	4289	2.146715135715	0
97	4849	2.467145135715	1
97	4856	2.467227135715	0
97	5513	2.867025135715	1
97	5520	2.867107135715	0
97	5730	2.986613135715	1
97	5737	2.986695135715	0
97	6229	3.205841135715	1
97	6236	3.205923135715	0
97	6262	3.206813135715	1
97	6269	3.206895135715	0
98	238	0.046645135715	24000000
98	536	0.167605135715	24000000
98	1478	0.586805135715	24000000
98	2495	1.207425135715	24000000
98	2658	1.266265135715	24000000
98	3390	1.606605135715	24000000
98	4058	1.986125135715	24000000
98	4282	2.146633135715	24000000
98	4849	2.467145135715	24000000
98	5513	2.867025135715	24000000
98	5730	2.986613135715	24000000
98	6229	3.205841135715	24000000
98	6262	3.206813135715	24000000
99	238	0.046645135715	154
99	536	0.167605135715	154
99	1478	0.586805135715	154
99	2495	1.207425135715	154
99	2658	1.266265135715	154
99	3390	1.606605135715	154
99	4058	1.986125135715	154
99	4282	2.146633135715	154
99	4849	2.467145135715	154
99	5513	2.867025135715	154
99	5730	2.986613135715	154
99	6229	3.205841135715	154
99	6262	3.206813135715	154
100	238	0.046645135715	1
100	245	0.046727135715	0
100	536	0.167605135715	1
100	543	0.167687135715	0
100	1478	0.586805135715	1
100	1485	0.586887135715	0
100	2495	1.207425135715	1
100	2502	1.207507135715	0
100	2658	1.266265135715	1
100	2665	1.266347135715	0
100	3390	1.606605135715	1
100	3397	1.606687135715	0
100	4058	1.986125135715	1
100	4065	1.986207135715	0
100	4282	2.146633135715	1
100	4289	2.146715135715	0
100	4849	2.467145135715	1
100	4856	2.467227135715	0
100	5513	2.867025135715	1
100	5520	2.867107135715	0
100	5730	2.986613135715	1
100	5737	2.986695135715	0
100	6229	3.205841135715	1
100	6236	3.205923135715	0
100	6262	3.206813135715	1
100	6269	3.206895135715	0
101	239	0.046645135715	1
101	240	0.046645135715	2
101	245	0.046727135715	1
101	246	0.046727135715	0
101	537	0.167605135715	1
101	538	0.167605135715	2
101	543	0.167687135715	1
101	544	0.167687135715	0
101	1479	0.586805135715	1
101	1480	0.586805135715	2
101	1485	0.586887135715	1
101	1486	0.586887135715	0
101	2496	1.207425135715	1
101	2497	1.207425135715	2
101	2502	1.207507135715	1
101	2503	1.207507135715	0
101	2659	1.266265135715	1
101	2660	1.266265135715	2
101	2665	1.266347135715	1
101	2666	1.266347135715	0
101	3391	1.606605135715	1
101	3392	1.606605135715	2
101	3397	1.606687135715	1
101	3398	1.606687135715	0
101	4059	1.986125135715	1
101	4060	1.986125135715	2
101	4065	1.986207135715	1
101	4066	1.986207135715	0
101	4283	2.146633135715	1
101	4284	2.146633135715	2
101	4289	2.146715135715	1
101	4290	2.146715135715	0
101	4850	2.467145135715	1
101	4851	2.467145135715	2
101	4856	2.467227135715	1
101	4857	2.467227135715	0
101	5514	2.867025135715	1
101	5515	2.867025135715	2
101	5520	2.867107135715	1
101	5521	2.867107135715	0
101	5731	2.986613135715	1
101	5732	2.986613135715	2
101	5737	2.986695135715	1
101	5738	2.986695135715	0
101	6230	3.205841135715	1
101	6231	3.205841135715	2
101	6236	3.205923135715	1
101	6237	3.205923135715	0
101	6263	3.206813135715	1
101	6264	3.206813135715	2
101	6269	3.206895135715	1
101	6270	3.206895135715	0
102	245	0.046727135715	154
102	543	0.167687135715	154
102	1485	0.586887135715	154
102	2502	1.207507135715	154
102	2665	1.266347135715	154
102	3397	1.606687135715	154
102	4065	1.986207135715	154
102	4289	2.146715135715	154
102	4856	2.467227135715	154
102	5520	2.867107135715	154
102	5737	2.986695135715	154
102	6236	3.205923135715	154
102	6269	3.206895135715	154
103	245	0.046727135715	154
103	543	0.167687135715	154
103	1485	0.586887135715	154
103	2502	1.207507135715	154
103	2665	1.266347135715	154
103	3397	1.606687135715	154
103	4065	1.986207135715	154
103	4289	2.146715135715	154
103	4856	2.467227135715	154
103	5520	2.867107135715	154
103	5737	2.986695135715	154
103	6236	3.205923135715	154
103	6269	3.206895135715	154
104	245	0.046727135715	154
104	543	0.167687135715	154
104	1485	0.586887135715	154
104	2502	1.207507135715	154
104	2665	1.266347135715	154
104	3397	1.606687135715	154
104	4065	1.986207135715	154
104	4289	2.146715135715	154
104	4856	2.467227135715	154
104	5520	2.867107135715	154
104	5737	2.986695135715	154
104	6236	3.205923135715	154
104	6269	3.206895135715	154
105	245	0.046727135715	8.2e-05
105	543	0.167687135715	8.2e-05
105	1485	0.586887135715	8.2e-05
105	2502	1.207507135715	8.2e-05
105	2665	1.266347135715	8.2e-05
105	3397	1.606687135715	8.2e-05
105	4065	1.986207135715	8.2e-05
105	4289	2.146715135715	8.2e-05
105	4856	2.467227135715	8.2e-05
105	5520	2.867107135715	8.2e-05
105	5737	2.986695135715	8.2e-05
105	6236	3.205923135715	8.2e-05
105	6269	3.206895135715	8.2e-05
106	548	0.167687469279	154
106	2489	1.206915469279	154
106	2507	1.207507469279	154
106	3401	1.606687469279	154
106	4293	2.146715469279	154
106	5741	2.986695469279	154
106	6114	3.146143469279	154
106	6273	3.206895469279	154
107	548	0.167687469279	154
107	2489	1.206915469279	154
107	2507	1.207507469279	154
107	3401	1.606687469279	154
107	4293	2.146715469279	154
107	5741	2.986695469279	154
107	6114	3.146143469279	154
107	6273	3.206895469279	154
108	548	0.167687469279	154
108	2489	1.206915469279	154
108	2507	1.207507469279	154
108	3401	1.606687469279	154
108	4293	2.146715469279	154
108	5741	2.986695469279	154
108	6114	3.146143469279	154
108	6273	3.206895469279	154
109	548	0.167687469279	154
109	2489	1.206915469279	154
109	2507	1.207507469279	154
109	3401	1.606687469279	154
109	4293	2.146715469279	154
109	5741	2.986695469279	154
109	6114	3.146143469279	154
109	6273	3.206895469279	154
110	548	0.167687469279	126
110	2489	1.206915469279	126
110	2507	1.207507469279	126
110	3401	1.606687469279	126
110	4293	2.146715469279	126
110	5741	2.986695469279	126
110	6114	3.146143469279	126
110	6273	3.206895469279	126
111	553	0.167687469279	108
111	2492	1.206915469279	108
111	2512	1.207507469279	108
111	3404	1.606687469279	108
111	4296	2.146715469279	108
111	5744	2.986695469279	108
111	6117	3.146143469279	108
111	6276	3.206895469279	108
112	553	0.167687469279	1
112	2492	1.206915469279	2
112	2512	1.207507469279	3
112	3404	1.606687469279	4
112	4296	2.146715469279	5
112	5744	2.986695469279	6
112	6117	3.146143469279	7
112	6276	3.206895469279	8
113	554	0.167687469279	100
113	2493	1.206915469279	100
113	2513	1.207507469279	100
113	3405	1.606687469279	100
113	4297	2.146715469279	100
113	5745	2.986695469279	100
113	6118	3.146143469279	100
113	6277	3.206895469279	100
114	554	0.1	0
114	2493	0.2	8000
114	2493	0.3	0
114	2493	0.4	0
114	2493	0.5	0
114	2493	0.6	0
114	2493	0.7	0
114	2493	0.8	0
114	2493	0.9	0
114	2493	1	0
114	2493	1.1	0
114	2493	1.2	0
114	3405	1.3	16000
114	3405	1.4	0
114	3405	1.5	0
114	3405	1.6	0
114	4297	1.7	8000
114	4297	1.8	0
114	4297	1.9	0
114	4297	2	0
114	4297	2.1	0
114	5745	2.2	8000
114	5745	2.3	0
114	5745	2.4	0
114	5745	2.5	0
114	5745	2.6	0
114	5745	2.7	0
114	5745	2.8	0
114	5745	2.9	0
114	6118	3	8000
114	6118	3.1	0
114	6277	3.2	8000
115	554	0.167687469279	0.002199334256
115	2493	1.206915469279	0.001427334256
115	2513	1.207507469279	0.002019334256
115	3405	1.606687469279	0.001199334256
115	4297	2.146715469279	0.001227334256
115	5745	2.986695469279	0.001207334256
115	6118	3.146143469279	0.000655334256
115	6277	3.206895469279	0.001407334256
116	554	0.167687469279	8
116	2493	1.206915469279	60
116	2513	1.207507469279	60
116	3405	1.606687469279	80
116	4297	2.146715469279	107
116	5745	2.986695469279	149
116	6118	3.146143469279	157
116	6277	3.206895469279	160
vector 117 NetworkModified.host[0].app[0] throughput:vector ETV
attr source throughput(packetReceived)
attr title "throughput, vector"
attr unit bps
vector 118 NetworkModified.host[1].app[0] throughput:vector ETV
attr source throughput(packetReceived)
attr title "throughput, vector"
attr unit bps
vector 119 NetworkModified.host[2].app[0] throughput:vector ETV
attr source throughput(packetReceived)
attr title "throughput, vector"
attr unit bps
vector 120 NetworkModified.host[3].app[0] throughput:vector ETV
attr source throughput(packetReceived)
attr title "throughput, vector"
attr unit bps
114	6615	3.3	8000
114	6615	3.386694802151	0
117	6615	0.1	0
117	6615	0.2	0
117	6615	0.3	0
117	6615	0.4	0
117	6615	0.5	0
117	6615	0.6	0
117	6615	0.7	0
117	6615	0.8	0
117	6615	0.9	0
117	6615	1	0
117	6615	1.1	0
117	6615	1.2	0
117	6615	1.3	0
117	6615	1.4	0
117	6615	1.5	0
117	6615	1.6	0
117	6615	1.7	0
117	6615	1.8	0
117	6615	1.9	0
117	6615	2	0
117	6615	2.1	0
117	6615	2.2	0
117	6615	2.3	0
117	6615	2.4	0
117	6615	2.5	0
117	6615	2.6	0
117	6615	2.7	0
117	6615	2.8	0
117	6615	2.9	0
117	6615	3	0
117	6615	3.1	0
117	6615	3.2	0
117	6615	3.3	0
117	6615	3.386694802151	0
118	6615	0.1	0
118	6615	0.2	0
118	6615	0.3	0
118	6615	0.4	0
118	6615	0.5	0
118	6615	0.6	0
118	6615	0.7	0
118	6615	0.8	0
118	6615	0.9	0
118	6615	1	0
118	6615	1.1	0
118	6615	1.2	0
118	6615	1.3	0
118	6615	1.4	0
118	6615	1.5	0
118	6615	1.6	0
118	6615	1.7	0
118	6615	1.8	0
118	6615	1.9	0
118	6615	2	0
118	6615	2.1	0
118	6615	2.2	0
118	6615	2.3	0
118	6615	2.4	0
118	6615	2.5	0
118	6615	2.6	0
118	6615	2.7	0
118	6615	2.8	0
118	6615	2.9	0
118	6615	3	0
118	6615	3.1	0
118	6615	3.2	0
118	6615	3.3	0
118	6615	3.386694802151	0
119	6615	0.1	0
119	6615	0.2	0
119	6615	0.3	0
119	6615	0.4	0
119	6615	0.5	0
119	6615	0.6	0
119	6615	0.7	0
119	6615	0.8	0
119	6615	0.9	0
119	6615	1	0
119	6615	1.1	0
119	6615	1.2	0
119	6615	1.3	0
119	6615	1.4	0
119	6615	1.5	0
119	6615	1.6	0
119	6615	1.7	0
119	6615	1.8	0
119	6615	1.9	0
119	6615	2	0
119	6615	2.1	0
119	6615	2.2	0
119	6615	2.3	0
119	6615	2.4	0
119	6615	2.5	0
119	6615	2.6	0
119	6615	2.7	0
119	6615	2.8	0
119	6615	2.9	0
119	6615	3	0
119	6615	3.1	0
119	6615	3.2	0
119	6615	3.3	0
119	6615	3.386694802151	0
120	6615	0.1	0
120	6615	0.2	0
120	6615	0.3	0
120	6615	0.4	0
120	6615	0.5	0
120	6615	0.6	0
120	6615	0.7	0
120	6615	0.8	0
120	6615	0.9	0
120	6615	1	0
120	6615	1.1	0
120	6615	1.2	0
120	6615	1.3	0
120	6615	1.4	0
120	6615	1.5	0
120	6615	1.6	0
120	6615	1.7	0
120	6615	1.8	0
120	6615	1.9	0
120	6615	2	0
120	6615	2.1	0
120	6615	2.2	0
120	6615	2.3	0
120	6615	2.4	0
120	6615	2.5	0
120	6615	2.6	0
120	6615	2.7	0
120	6615	2.8	0
120	6615	2.9	0
120	6615	3	0
120	6615	3.1	0
120	6615	3.2	0
120	6615	3.3	0
120	6615	3.386694802151	0

