file 517431 1590232693                                          
version 2
run Static-0-20200523-12:55:45-21269
attr configname Static
attr datetime 20200523-12:55:45
attr experiment Static
attr inifile omnetpp.ini
attr iterationvars ""
attr iterationvarsf ""
attr measurement ""
attr network NetworkModified
attr processid 21269
attr repetition 0
attr replication #0
attr resultdir results
attr runnumber 0
attr seedset 0
param **.host[*].mobility.typename "\"StationaryMobility\""
param **.host[*].mobility.initFromDisplayString false
param **.networkConfigurator.typename "\"NextHopNetworkConfigurator\""
param *.host[*].wlan[2].radio.displayCommunicationRange true
param *.visualizer.sceneVisualizer.descriptionFigure "\"title\""
param *.visualizer.mediumVisualizer.displaySignals true
param *.visualizer.physicalLinkVisualizer.displayLinks true
param *.host[*].wlan[0].radio.transmitter.communicationRange 200m
param *.host[*].wlan[0].radio.displayCommunicationRange true
param **.host[*].mobility.initialZ 0m
param **.host[0].mobility.initialX 100m
param **.host[0].mobility.initialY 100m
param **.host[1].mobility.initialX 100m
param **.host[1].mobility.initialY 250m
param **.host[2].mobility.initialX 100m
param **.host[2].mobility.initialY 400m
param **.host[3].mobility.initialX 100m
param **.host[3].mobility.initialY 550m
param **.host[4].mobility.initialX 150m
param **.host[4].mobility.initialY 100m
param **.host[5].mobility.initialX 200m
param **.host[5].mobility.initialY 100m
param **.host[6].mobility.initialX 250m
param **.host[6].mobility.initialY 100m
param **.host[7].mobility.initialX 100m
param **.host[7].mobility.initialY 250m
param **.host[8].mobility.initialX 150m
param **.host[8].mobility.initialY 250m
param **.host[9].mobility.initialX 200m
param **.host[9].mobility.initialY 250m
param **.host[10].mobility.initialX 100m
param **.host[10].mobility.initialY 400m
param **.host[11].mobility.initialX 150m
param **.host[11].mobility.initialY 400m
param **.host[12].mobility.initialX 200m
param **.host[12].mobility.initialY 400m
param **.host[13].mobility.initialX 100m
param **.host[13].mobility.initialY 550m
param **.host[14].mobility.initialX 150m
param **.host[14].mobility.initialY 550m
param **.host[15].mobility.initialX 200m
param **.host[15].mobility.initialY 550m
param **.host[16].mobility.initialX 250m
param **.host[16].mobility.initialY 100m
param **.host[17].mobility.initialX 250m
param **.host[17].mobility.initialY 250m
param **.host[18].mobility.initialX 250m
param **.host[18].mobility.initialY 400m
param **.host[19].mobility.initialX 250m
param **.host[19].mobility.initialY 550m
param **.constraintAreaMaxX 1000m
param **.constraintAreaMaxY 1000m
param **.constraintAreaMaxZ 0m
param **.constraintAreaMinX 0m
param **.constraintAreaMinY 0m
param **.constraintAreaMinZ 0m
param **.number 20
param **.networkConfiguratorModule "\"networkConfigurator\""
param **.networkConfigurator.config "xmldoc(\"lessnodes.xml\")"
param **.host[*].hasIpv4 false
param **.host[*].hasIpv6 false
param **.host[*].hasGn true
param **.host[*].generic.typename "\"NextHopNetworkLayer\""
param **.host[*].generic.nextHop.hopLimit 4
param **.numApps 1
param **.radioMedium.pathLoss.typename "\"LogNormalShadowing\""
param **.radioMedium.pathLoss.alpha 3
param **.radioMedium.pathLoss.sigma 7
param **.host[4..19].app[0].typename "\"UdpSink\""
param **.host[4..19].app[0].localPort 7654
param **.host[0..3].app[0].typename "\"UdpBasicApp\""
param **.host[0..3].app[0].destPort 7654
param **.host[0].app[0].destAddresses "\"host[16]\""
param **.host[1].app[0].destAddresses "\"host[17]\""
param **.host[2].app[0].destAddresses "\"host[18]\""
param **.host[3].app[0].destAddresses "\"host[19]\""
param **.host[0..3].app[0].messageLength 100B
param **.host[0..3].app[0].startTime "uniform(0s, 10ms)"
param **.host[0..3].app[0].sendInterval 20ms
param **.host[0..3].app[0].packetName "\"CustomData\""
param **.host[0].generic.nextHop.nextHopParam "\"host[4]\""
param **.host[1].generic.nextHop.nextHopParam "\"host[7]\""
param **.host[2].generic.nextHop.nextHopParam "\"host[10]\""
param **.host[3].generic.nextHop.nextHopParam "\"host[13]\""
param **.host[0].generic.nextHop.dataSource "\"host[0]\""
param **.host[0].generic.nextHop.dataDestination "\"host[16]\""
param **.host[0].generic.nextHop.isSender true
param **.host[1].generic.nextHop.dataSource "\"host[1]\""
param **.host[1].generic.nextHop.dataDestination "\"host[17]\""
param **.host[1].generic.nextHop.isSender true
param **.host[2].generic.nextHop.dataSource "\"host[2]\""
param **.host[2].generic.nextHop.dataDestination "\"host[18]\""
param **.host[2].generic.nextHop.isSender true
param **.host[3].generic.nextHop.dataSource "\"host[3]\""
param **.host[3].generic.nextHop.dataDestination "\"host[19]\""
param **.host[3].generic.nextHop.isSender true
param **.host[4].generic.nextHop.nextHopParam "\"host[5]\""
param **.host[5].generic.nextHop.nextHopParam "\"host[6]\""
param **.host[6].generic.nextHop.nextHopParam "\"host[16]\""
param **.host[7].generic.nextHop.nextHopParam "\"host[8]\""
param **.host[8].generic.nextHop.nextHopParam "\"host[9]\""
param **.host[9].generic.nextHop.nextHopParam "\"host[17]\""
param **.host[10].generic.nextHop.nextHopParam "\"host[11]\""
param **.host[11].generic.nextHop.nextHopParam "\"host[12]\""
param **.host[12].generic.nextHop.nextHopParam "\"host[18]\""
param **.host[13].generic.nextHop.nextHopParam "\"host[14]\""
param **.host[14].generic.nextHop.nextHopParam "\"host[15]\""
param **.host[15].generic.nextHop.nextHopParam "\"host[19]\""
param **.host[4].generic.nextHop.dataSource "\"\""
param **.host[4].generic.nextHop.dataDestination "\"\""
param **.host[4].generic.nextHop.isSender false
param **.host[5].generic.nextHop.dataSource "\"\""
param **.host[5].generic.nextHop.dataDestination "\"\""
param **.host[5].generic.nextHop.isSender false
param **.host[6].generic.nextHop.dataSource "\"\""
param **.host[6].generic.nextHop.dataDestination "\"\""
param **.host[6].generic.nextHop.isSender false
param **.host[7].generic.nextHop.dataSource "\"\""
param **.host[7].generic.nextHop.dataDestination "\"\""
param **.host[7].generic.nextHop.isSender false
param **.host[8].generic.nextHop.dataSource "\"\""
param **.host[8].generic.nextHop.dataDestination "\"\""
param **.host[8].generic.nextHop.isSender false
param **.host[9].generic.nextHop.dataSource "\"\""
param **.host[9].generic.nextHop.dataDestination "\"\""
param **.host[9].generic.nextHop.isSender false
param **.host[10].generic.nextHop.dataSource "\"\""
param **.host[10].generic.nextHop.dataDestination "\"\""
param **.host[10].generic.nextHop.isSender false
param **.host[11].generic.nextHop.dataSource "\"\""
param **.host[11].generic.nextHop.dataDestination "\"\""
param **.host[11].generic.nextHop.isSender false
param **.host[12].generic.nextHop.dataSource "\"\""
param **.host[12].generic.nextHop.dataDestination "\"\""
param **.host[12].generic.nextHop.isSender false
param **.host[13].generic.nextHop.dataSource "\"\""
param **.host[13].generic.nextHop.dataDestination "\"\""
param **.host[13].generic.nextHop.isSender false
param **.host[14].generic.nextHop.dataSource "\"\""
param **.host[14].generic.nextHop.dataDestination "\"\""
param **.host[14].generic.nextHop.isSender false
param **.host[15].generic.nextHop.dataSource "\"\""
param **.host[15].generic.nextHop.dataDestination "\"\""
param **.host[15].generic.nextHop.isSender false
param **.host[16].generic.nextHop.nextHopParam "\"host[16]\""
param **.host[17].generic.nextHop.nextHopParam "\"host[17]\""
param **.host[18].generic.nextHop.nextHopParam "\"host[18]\""
param **.host[19].generic.nextHop.nextHopParam "\"host[19]\""
param **.host[16].generic.nextHop.dataSource "\"\""
param **.host[16].generic.nextHop.dataDestination "\"\""
param **.host[16].generic.nextHop.isSender false
param **.host[17].generic.nextHop.dataSource "\"\""
param **.host[17].generic.nextHop.dataDestination "\"\""
param **.host[17].generic.nextHop.isSender false
param **.host[18].generic.nextHop.dataSource "\"\""
param **.host[18].generic.nextHop.dataDestination "\"\""
param **.host[18].generic.nextHop.isSender false
param **.host[19].generic.nextHop.dataSource "\"\""
param **.host[19].generic.nextHop.dataDestination "\"\""
param **.host[19].generic.nextHop.isSender false

vector 0 NetworkModified.host[0].wlan[0].radio radioMode:vector ETV
attr interpolationmode sample-hold
attr source radioModeChanged
attr title "Radio mode, vector"
vector 1 NetworkModified.host[0].wlan[0].radio radioChannel:vector ETV
attr interpolationmode sample-hold
attr source radioChannelChanged
attr title "Radio channel, vector"
vector 2 NetworkModified.host[1].wlan[0].radio radioMode:vector ETV
attr interpolationmode sample-hold
attr source radioModeChanged
attr title "Radio mode, vector"
vector 3 NetworkModified.host[1].wlan[0].radio radioChannel:vector ETV
attr interpolationmode sample-hold
attr source radioChannelChanged
attr title "Radio channel, vector"
vector 4 NetworkModified.host[2].wlan[0].radio radioMode:vector ETV
attr interpolationmode sample-hold
attr source radioModeChanged
attr title "Radio mode, vector"
vector 5 NetworkModified.host[2].wlan[0].radio radioChannel:vector ETV
attr interpolationmode sample-hold
attr source radioChannelChanged
attr title "Radio channel, vector"
vector 6 NetworkModified.host[3].wlan[0].radio radioMode:vector ETV
attr interpolationmode sample-hold
attr source radioModeChanged
attr title "Radio mode, vector"
vector 7 NetworkModified.host[3].wlan[0].radio radioChannel:vector ETV
attr interpolationmode sample-hold
attr source radioChannelChanged
attr title "Radio channel, vector"
vector 8 NetworkModified.host[4].wlan[0].radio radioMode:vector ETV
attr interpolationmode sample-hold
attr source radioModeChanged
attr title "Radio mode, vector"
vector 9 NetworkModified.host[4].wlan[0].radio radioChannel:vector ETV
attr interpolationmode sample-hold
attr source radioChannelChanged
attr title "Radio channel, vector"
vector 10 NetworkModified.host[5].wlan[0].radio radioMode:vector ETV
attr interpolationmode sample-hold
attr source radioModeChanged
attr title "Radio mode, vector"
vector 11 NetworkModified.host[5].wlan[0].radio radioChannel:vector ETV
attr interpolationmode sample-hold
attr source radioChannelChanged
attr title "Radio channel, vector"
vector 12 NetworkModified.host[6].wlan[0].radio radioMode:vector ETV
attr interpolationmode sample-hold
attr source radioModeChanged
attr title "Radio mode, vector"
vector 13 NetworkModified.host[6].wlan[0].radio radioChannel:vector ETV
attr interpolationmode sample-hold
attr source radioChannelChanged
attr title "Radio channel, vector"
vector 14 NetworkModified.host[7].wlan[0].radio radioMode:vector ETV
attr interpolationmode sample-hold
attr source radioModeChanged
attr title "Radio mode, vector"
vector 15 NetworkModified.host[7].wlan[0].radio radioChannel:vector ETV
attr interpolationmode sample-hold
attr source radioChannelChanged
attr title "Radio channel, vector"
vector 16 NetworkModified.host[8].wlan[0].radio radioMode:vector ETV
attr interpolationmode sample-hold
attr source radioModeChanged
attr title "Radio mode, vector"
vector 17 NetworkModified.host[8].wlan[0].radio radioChannel:vector ETV
attr interpolationmode sample-hold
attr source radioChannelChanged
attr title "Radio channel, vector"
vector 18 NetworkModified.host[9].wlan[0].radio radioMode:vector ETV
attr interpolationmode sample-hold
attr source radioModeChanged
attr title "Radio mode, vector"
vector 19 NetworkModified.host[9].wlan[0].radio radioChannel:vector ETV
attr interpolationmode sample-hold
attr source radioChannelChanged
attr title "Radio channel, vector"
vector 20 NetworkModified.host[10].wlan[0].radio radioMode:vector ETV
attr interpolationmode sample-hold
attr source radioModeChanged
attr title "Radio mode, vector"
vector 21 NetworkModified.host[10].wlan[0].radio radioChannel:vector ETV
attr interpolationmode sample-hold
attr source radioChannelChanged
attr title "Radio channel, vector"
vector 22 NetworkModified.host[11].wlan[0].radio radioMode:vector ETV
attr interpolationmode sample-hold
attr source radioModeChanged
attr title "Radio mode, vector"
vector 23 NetworkModified.host[11].wlan[0].radio radioChannel:vector ETV
attr interpolationmode sample-hold
attr source radioChannelChanged
attr title "Radio channel, vector"
vector 24 NetworkModified.host[12].wlan[0].radio radioMode:vector ETV
attr interpolationmode sample-hold
attr source radioModeChanged
attr title "Radio mode, vector"
vector 25 NetworkModified.host[12].wlan[0].radio radioChannel:vector ETV
attr interpolationmode sample-hold
attr source radioChannelChanged
attr title "Radio channel, vector"
vector 26 NetworkModified.host[13].wlan[0].radio radioMode:vector ETV
attr interpolationmode sample-hold
attr source radioModeChanged
attr title "Radio mode, vector"
vector 27 NetworkModified.host[13].wlan[0].radio radioChannel:vector ETV
attr interpolationmode sample-hold
attr source radioChannelChanged
attr title "Radio channel, vector"
vector 28 NetworkModified.host[14].wlan[0].radio radioMode:vector ETV
attr interpolationmode sample-hold
attr source radioModeChanged
attr title "Radio mode, vector"
vector 29 NetworkModified.host[14].wlan[0].radio radioChannel:vector ETV
attr interpolationmode sample-hold
attr source radioChannelChanged
attr title "Radio channel, vector"
vector 30 NetworkModified.host[15].wlan[0].radio radioMode:vector ETV
attr interpolationmode sample-hold
attr source radioModeChanged
attr title "Radio mode, vector"
vector 31 NetworkModified.host[15].wlan[0].radio radioChannel:vector ETV
attr interpolationmode sample-hold
attr source radioChannelChanged
attr title "Radio channel, vector"
vector 32 NetworkModified.host[16].wlan[0].radio radioMode:vector ETV
attr interpolationmode sample-hold
attr source radioModeChanged
attr title "Radio mode, vector"
vector 33 NetworkModified.host[16].wlan[0].radio radioChannel:vector ETV
attr interpolationmode sample-hold
attr source radioChannelChanged
attr title "Radio channel, vector"
vector 34 NetworkModified.host[17].wlan[0].radio radioMode:vector ETV
attr interpolationmode sample-hold
attr source radioModeChanged
attr title "Radio mode, vector"
vector 35 NetworkModified.host[17].wlan[0].radio radioChannel:vector ETV
attr interpolationmode sample-hold
attr source radioChannelChanged
attr title "Radio channel, vector"
vector 36 NetworkModified.host[18].wlan[0].radio radioMode:vector ETV
attr interpolationmode sample-hold
attr source radioModeChanged
attr title "Radio mode, vector"
vector 37 NetworkModified.host[18].wlan[0].radio radioChannel:vector ETV
attr interpolationmode sample-hold
attr source radioChannelChanged
attr title "Radio channel, vector"
vector 38 NetworkModified.host[19].wlan[0].radio radioMode:vector ETV
attr interpolationmode sample-hold
attr source radioModeChanged
attr title "Radio mode, vector"
vector 39 NetworkModified.host[19].wlan[0].radio radioChannel:vector ETV
attr interpolationmode sample-hold
attr source radioChannelChanged
attr title "Radio channel, vector"
vector 40 NetworkModified.host[0].wlan[0].radio receptionState:vector ETV
attr interpolationmode sample-hold
attr source receptionStateChanged
attr title "Radio reception state, vector"
vector 41 NetworkModified.host[1].wlan[0].radio receptionState:vector ETV
attr interpolationmode sample-hold
attr source receptionStateChanged
attr title "Radio reception state, vector"
vector 42 NetworkModified.host[2].wlan[0].radio receptionState:vector ETV
attr interpolationmode sample-hold
attr source receptionStateChanged
attr title "Radio reception state, vector"
vector 43 NetworkModified.host[3].wlan[0].radio receptionState:vector ETV
attr interpolationmode sample-hold
attr source receptionStateChanged
attr title "Radio reception state, vector"
vector 44 NetworkModified.host[4].wlan[0].radio receptionState:vector ETV
attr interpolationmode sample-hold
attr source receptionStateChanged
attr title "Radio reception state, vector"
vector 45 NetworkModified.host[5].wlan[0].radio receptionState:vector ETV
attr interpolationmode sample-hold
attr source receptionStateChanged
attr title "Radio reception state, vector"
vector 46 NetworkModified.host[6].wlan[0].radio receptionState:vector ETV
attr interpolationmode sample-hold
attr source receptionStateChanged
attr title "Radio reception state, vector"
vector 47 NetworkModified.host[7].wlan[0].radio receptionState:vector ETV
attr interpolationmode sample-hold
attr source receptionStateChanged
attr title "Radio reception state, vector"
vector 48 NetworkModified.host[8].wlan[0].radio receptionState:vector ETV
attr interpolationmode sample-hold
attr source receptionStateChanged
attr title "Radio reception state, vector"
vector 49 NetworkModified.host[9].wlan[0].radio receptionState:vector ETV
attr interpolationmode sample-hold
attr source receptionStateChanged
attr title "Radio reception state, vector"
vector 50 NetworkModified.host[10].wlan[0].radio receptionState:vector ETV
attr interpolationmode sample-hold
attr source receptionStateChanged
attr title "Radio reception state, vector"
vector 51 NetworkModified.host[11].wlan[0].radio receptionState:vector ETV
attr interpolationmode sample-hold
attr source receptionStateChanged
attr title "Radio reception state, vector"
vector 52 NetworkModified.host[12].wlan[0].radio receptionState:vector ETV
attr interpolationmode sample-hold
attr source receptionStateChanged
attr title "Radio reception state, vector"
vector 53 NetworkModified.host[13].wlan[0].radio receptionState:vector ETV
attr interpolationmode sample-hold
attr source receptionStateChanged
attr title "Radio reception state, vector"
vector 54 NetworkModified.host[14].wlan[0].radio receptionState:vector ETV
attr interpolationmode sample-hold
attr source receptionStateChanged
attr title "Radio reception state, vector"
vector 55 NetworkModified.host[15].wlan[0].radio receptionState:vector ETV
attr interpolationmode sample-hold
attr source receptionStateChanged
attr title "Radio reception state, vector"
vector 56 NetworkModified.host[16].wlan[0].radio receptionState:vector ETV
attr interpolationmode sample-hold
attr source receptionStateChanged
attr title "Radio reception state, vector"
vector 57 NetworkModified.host[17].wlan[0].radio receptionState:vector ETV
attr interpolationmode sample-hold
attr source receptionStateChanged
attr title "Radio reception state, vector"
vector 58 NetworkModified.host[18].wlan[0].radio receptionState:vector ETV
attr interpolationmode sample-hold
attr source receptionStateChanged
attr title "Radio reception state, vector"
vector 59 NetworkModified.host[19].wlan[0].radio receptionState:vector ETV
attr interpolationmode sample-hold
attr source receptionStateChanged
attr title "Radio reception state, vector"
vector 60 NetworkModified.host[0].wlan[0].mac.dcf.recoveryProcedure contentionWindowChanged:vector ETV
attr interpolationmode sample-hold
attr title "contention window, vector"
vector 61 NetworkModified.host[1].wlan[0].mac.dcf.recoveryProcedure contentionWindowChanged:vector ETV
attr interpolationmode sample-hold
attr title "contention window, vector"
vector 62 NetworkModified.host[2].wlan[0].mac.dcf.recoveryProcedure contentionWindowChanged:vector ETV
attr interpolationmode sample-hold
attr title "contention window, vector"
vector 63 NetworkModified.host[3].wlan[0].mac.dcf.recoveryProcedure contentionWindowChanged:vector ETV
attr interpolationmode sample-hold
attr title "contention window, vector"
vector 64 NetworkModified.host[4].wlan[0].mac.dcf.recoveryProcedure contentionWindowChanged:vector ETV
attr interpolationmode sample-hold
attr title "contention window, vector"
vector 65 NetworkModified.host[5].wlan[0].mac.dcf.recoveryProcedure contentionWindowChanged:vector ETV
attr interpolationmode sample-hold
attr title "contention window, vector"
vector 66 NetworkModified.host[6].wlan[0].mac.dcf.recoveryProcedure contentionWindowChanged:vector ETV
attr interpolationmode sample-hold
attr title "contention window, vector"
vector 67 NetworkModified.host[7].wlan[0].mac.dcf.recoveryProcedure contentionWindowChanged:vector ETV
attr interpolationmode sample-hold
attr title "contention window, vector"
vector 68 NetworkModified.host[8].wlan[0].mac.dcf.recoveryProcedure contentionWindowChanged:vector ETV
attr interpolationmode sample-hold
attr title "contention window, vector"
vector 69 NetworkModified.host[9].wlan[0].mac.dcf.recoveryProcedure contentionWindowChanged:vector ETV
attr interpolationmode sample-hold
attr title "contention window, vector"
vector 70 NetworkModified.host[10].wlan[0].mac.dcf.recoveryProcedure contentionWindowChanged:vector ETV
attr interpolationmode sample-hold
attr title "contention window, vector"
vector 71 NetworkModified.host[11].wlan[0].mac.dcf.recoveryProcedure contentionWindowChanged:vector ETV
attr interpolationmode sample-hold
attr title "contention window, vector"
vector 72 NetworkModified.host[12].wlan[0].mac.dcf.recoveryProcedure contentionWindowChanged:vector ETV
attr interpolationmode sample-hold
attr title "contention window, vector"
vector 73 NetworkModified.host[13].wlan[0].mac.dcf.recoveryProcedure contentionWindowChanged:vector ETV
attr interpolationmode sample-hold
attr title "contention window, vector"
vector 74 NetworkModified.host[14].wlan[0].mac.dcf.recoveryProcedure contentionWindowChanged:vector ETV
attr interpolationmode sample-hold
attr title "contention window, vector"
vector 75 NetworkModified.host[15].wlan[0].mac.dcf.recoveryProcedure contentionWindowChanged:vector ETV
attr interpolationmode sample-hold
attr title "contention window, vector"
vector 76 NetworkModified.host[16].wlan[0].mac.dcf.recoveryProcedure contentionWindowChanged:vector ETV
attr interpolationmode sample-hold
attr title "contention window, vector"
vector 77 NetworkModified.host[17].wlan[0].mac.dcf.recoveryProcedure contentionWindowChanged:vector ETV
attr interpolationmode sample-hold
attr title "contention window, vector"
vector 78 NetworkModified.host[18].wlan[0].mac.dcf.recoveryProcedure contentionWindowChanged:vector ETV
attr interpolationmode sample-hold
attr title "contention window, vector"
vector 79 NetworkModified.host[19].wlan[0].mac.dcf.recoveryProcedure contentionWindowChanged:vector ETV
attr interpolationmode sample-hold
attr title "contention window, vector"
vector 80 NetworkModified.host[0].app[0] packetSent:vector(packetBytes) ETV
attr interpolationmode none
attr source packetSent
attr title "packets sent, vector(packetBytes)"
vector 81 NetworkModified.host[0].udp packetSent:vector(packetBytes) ETV
attr interpolationmode none
attr source packetSent
attr title "packets sent, vector(packetBytes)"
vector 82 NetworkModified.host[0].wlan[0].mac packetReceivedFromUpper:vector(packetBytes) ETV
attr interpolationmode none
attr title "packets received from upper layer, vector(packetBytes)"
vector 83 NetworkModified.host[0].wlan[0].mac.dcf.channelAccess.pendingQueue packetPushed:vector(packetBytes) ETV
attr interpolationmode none
attr title "packet pushed, vector(packetBytes)"
vector 84 NetworkModified.host[0].wlan[0].mac.dcf.channelAccess.pendingQueue queueLength:vector ETV
attr interpolationmode sample-hold
attr source "count(packetPushed) - count(packetPopped) - count(packetRemoved) - count(packetDropped)"
attr title "queue length, vector"
vector 85 NetworkModified.host[0].wlan[0].mac.dcf.channelAccess.contention backoffPeriodGenerated:vector ETV
attr interpolationmode none
attr title "backoff periods, vector"
vector 86 NetworkModified.host[0].wlan[0].mac.dcf.channelAccess.contention backoffActive:vector ETV
attr interpolationmode sample-hold
attr source count(backoffStarted)-count(backoffStopped)
attr title "backoff active, vector"
vector 87 NetworkModified.host[0].wlan[0].mac.dcf.channelAccess.pendingQueue packetPopped:vector(packetBytes) ETV
attr interpolationmode none
attr title "packet popped, vector(packetBytes)"
vector 88 NetworkModified.host[0].wlan[0].mac.dcf.channelAccess.pendingQueue queueingTime:vector ETV
attr interpolationmode none
attr source queueingTime(packetPopped)
attr title "queueing times, vector"
attr unit s
vector 89 NetworkModified.host[0].wlan[0].mac.dcf.channelAccess.inProgressFrames queueLength:vector ETV
attr interpolationmode sample-hold
attr source "count(packetEnqueued) - count(packetDequeued)"
attr title "queue length, vector"
vector 90 NetworkModified.host[0].wlan[0].mac.dcf datarateSelected:vector ETV
attr interpolationmode none
attr title "datarates selected, vector"
vector 91 NetworkModified.host[0].wlan[0].mac packetSentToLower:vector(packetBytes) ETV
attr interpolationmode none
attr title "packets sent to lower layer, vector(packetBytes)"
vector 92 NetworkModified.host[0].wlan[0].mac.dcf frameSequenceActive:vector ETV
attr interpolationmode sample-hold
attr source count(frameSequenceStarted)-count(frameSequenceFinished)
attr title "frame sequence active, vector"
vector 93 NetworkModified.host[0].wlan[0].radio transmissionState:vector ETV
attr interpolationmode sample-hold
attr source transmissionStateChanged
attr title "Radio transmission state, vector"
vector 94 NetworkModified.host[0].wlan[0].mac.dcf packetSentToPeer:vector(packetBytes) ETV
attr interpolationmode none
attr title "packets sent, vector(packetBytes)"
vector 95 NetworkModified.host[0].wlan[0].mac.dcf packetSentToPeerMulticast:vector(packetBytes) ETV
attr interpolationmode none
attr source ieee80211Multicast(packetSentToPeer)
attr title "packets sent: multicast, vector(packetBytes)"
vector 96 NetworkModified.host[0].wlan[0].mac.dcf packetSentToPeerWithoutRetry:vector(packetBytes) ETV
attr interpolationmode none
attr source ieee80211NotRetry(packetSentToPeer)
attr title "packets sent: without retry, vector(packetBytes)"
vector 97 NetworkModified.host[0].wlan[0].mac.dcf.channelAccess.inProgressFrames queueingTime:vector ETV
attr interpolationmode none
attr source queueingTime(packetDequeued)
attr title "queueing times, vector"
vector 98 NetworkModified.host[4].wlan[0].mac packetReceivedFromLower:vector(packetBytes) ETV
attr interpolationmode none
attr title "packets received from lower layer, vector(packetBytes)"
vector 99 NetworkModified.host[4].wlan[0].mac.dcf packetReceivedFromPeer:vector(packetBytes) ETV
attr interpolationmode none
attr title "packets received, vector(packetBytes)"
vector 100 NetworkModified.host[4].wlan[0].mac.dcf packetReceivedFromPeerMulticast:vector(packetBytes) ETV
attr interpolationmode none
attr source ieee80211Multicast(packetReceivedFromPeer)
attr title "packets received: multicast, vector(packetBytes)"
vector 101 NetworkModified.host[4].wlan[0].mac.dcf packetReceivedFromPeerWithoutRetry:vector(packetBytes) ETV
attr interpolationmode none
attr source ieee80211NotRetry(packetReceivedFromPeer)
attr title "packets received: without retry, vector(packetBytes)"
vector 102 NetworkModified.host[4].wlan[0].mac packetSentToUpper:vector(packetBytes) ETV
attr interpolationmode none
attr title "packets sent to upper layer, vector(packetBytes)"
vector 103 NetworkModified.host[4].wlan[0].mac packetReceivedFromUpper:vector(packetBytes) ETV
attr interpolationmode none
attr title "packets received from upper layer, vector(packetBytes)"
vector 104 NetworkModified.host[4].wlan[0].mac.dcf.channelAccess.pendingQueue packetPushed:vector(packetBytes) ETV
attr interpolationmode none
attr title "packet pushed, vector(packetBytes)"
vector 105 NetworkModified.host[4].wlan[0].mac.dcf.channelAccess.pendingQueue queueLength:vector ETV
attr interpolationmode sample-hold
attr source "count(packetPushed) - count(packetPopped) - count(packetRemoved) - count(packetDropped)"
attr title "queue length, vector"
vector 106 NetworkModified.host[4].wlan[0].mac.dcf.channelAccess.contention backoffPeriodGenerated:vector ETV
attr interpolationmode none
attr title "backoff periods, vector"
vector 107 NetworkModified.host[4].wlan[0].mac.dcf.channelAccess.contention backoffActive:vector ETV
attr interpolationmode sample-hold
attr source count(backoffStarted)-count(backoffStopped)
attr title "backoff active, vector"
vector 108 NetworkModified.host[5].wlan[0].mac packetReceivedFromLower:vector(packetBytes) ETV
attr interpolationmode none
attr title "packets received from lower layer, vector(packetBytes)"
vector 109 NetworkModified.host[5].wlan[0].mac.dcf packetReceivedFromPeer:vector(packetBytes) ETV
attr interpolationmode none
attr title "packets received, vector(packetBytes)"
vector 110 NetworkModified.host[5].wlan[0].mac.dcf packetReceivedFromPeerMulticast:vector(packetBytes) ETV
attr interpolationmode none
attr source ieee80211Multicast(packetReceivedFromPeer)
attr title "packets received: multicast, vector(packetBytes)"
vector 111 NetworkModified.host[5].wlan[0].mac.dcf packetReceivedFromPeerWithoutRetry:vector(packetBytes) ETV
attr interpolationmode none
attr source ieee80211NotRetry(packetReceivedFromPeer)
attr title "packets received: without retry, vector(packetBytes)"
vector 112 NetworkModified.host[5].wlan[0].mac packetSentToUpper:vector(packetBytes) ETV
attr interpolationmode none
attr title "packets sent to upper layer, vector(packetBytes)"
vector 113 NetworkModified.host[5].wlan[0].mac packetReceivedFromUpper:vector(packetBytes) ETV
attr interpolationmode none
attr title "packets received from upper layer, vector(packetBytes)"
vector 114 NetworkModified.host[5].wlan[0].mac.dcf.channelAccess.pendingQueue packetPushed:vector(packetBytes) ETV
attr interpolationmode none
attr title "packet pushed, vector(packetBytes)"
vector 115 NetworkModified.host[5].wlan[0].mac.dcf.channelAccess.pendingQueue queueLength:vector ETV
attr interpolationmode sample-hold
attr source "count(packetPushed) - count(packetPopped) - count(packetRemoved) - count(packetDropped)"
attr title "queue length, vector"
vector 116 NetworkModified.host[5].wlan[0].mac.dcf.channelAccess.contention backoffPeriodGenerated:vector ETV
attr interpolationmode none
attr title "backoff periods, vector"
vector 117 NetworkModified.host[5].wlan[0].mac.dcf.channelAccess.contention backoffActive:vector ETV
attr interpolationmode sample-hold
attr source count(backoffStarted)-count(backoffStopped)
attr title "backoff active, vector"
vector 118 NetworkModified.host[1].wlan[0].mac packetReceivedFromLower:vector(packetBytes) ETV
attr interpolationmode none
attr title "packets received from lower layer, vector(packetBytes)"
vector 119 NetworkModified.host[1].wlan[0].mac.dcf packetReceivedFromPeer:vector(packetBytes) ETV
attr interpolationmode none
attr title "packets received, vector(packetBytes)"
vector 120 NetworkModified.host[1].wlan[0].mac.dcf packetReceivedFromPeerMulticast:vector(packetBytes) ETV
attr interpolationmode none
attr source ieee80211Multicast(packetReceivedFromPeer)
attr title "packets received: multicast, vector(packetBytes)"
vector 121 NetworkModified.host[1].wlan[0].mac.dcf packetReceivedFromPeerWithoutRetry:vector(packetBytes) ETV
attr interpolationmode none
attr source ieee80211NotRetry(packetReceivedFromPeer)
attr title "packets received: without retry, vector(packetBytes)"
vector 122 NetworkModified.host[1].wlan[0].mac packetSentToUpper:vector(packetBytes) ETV
attr interpolationmode none
attr title "packets sent to upper layer, vector(packetBytes)"
vector 123 NetworkModified.host[1].wlan[0].mac packetReceivedFromUpper:vector(packetBytes) ETV
attr interpolationmode none
attr title "packets received from upper layer, vector(packetBytes)"
vector 124 NetworkModified.host[1].wlan[0].mac.dcf.channelAccess.pendingQueue packetPushed:vector(packetBytes) ETV
attr interpolationmode none
attr title "packet pushed, vector(packetBytes)"
vector 125 NetworkModified.host[1].wlan[0].mac.dcf.channelAccess.pendingQueue queueLength:vector ETV
attr interpolationmode sample-hold
attr source "count(packetPushed) - count(packetPopped) - count(packetRemoved) - count(packetDropped)"
attr title "queue length, vector"
vector 126 NetworkModified.host[1].wlan[0].mac.dcf.channelAccess.contention backoffPeriodGenerated:vector ETV
attr interpolationmode none
attr title "backoff periods, vector"
vector 127 NetworkModified.host[1].wlan[0].mac.dcf.channelAccess.contention backoffActive:vector ETV
attr interpolationmode sample-hold
attr source count(backoffStarted)-count(backoffStopped)
attr title "backoff active, vector"
vector 128 NetworkModified.host[1].app[0] packetSent:vector(packetBytes) ETV
attr interpolationmode none
attr source packetSent
attr title "packets sent, vector(packetBytes)"
vector 129 NetworkModified.host[1].udp packetSent:vector(packetBytes) ETV
attr interpolationmode none
attr source packetSent
attr title "packets sent, vector(packetBytes)"
0	32666 68 0 63 0 0.005570135023 5 0 3 7 17
1	32734 8 0 0 0 0 1 0 0 0 0
2	32742 24 0 0 0 0 3 0 2 2 4
3	32766 8 0 0 0 0 1 0 0 0 0
4	32774 24 0 0 0 0 3 0 2 2 4
5	32798 8 0 0 0 0 1 0 0 0 0
6	32806 24 0 0 0 0 3 0 2 2 4
7	32830 8 0 0 0 0 1 0 0 0 0
8	32838 24 0 0 0 0 3 0 2 2 4
9	32862 8 0 0 0 0 1 0 0 0 0
10	32870 27 0 0 0 0 3 0 2 2 4
11	32897 9 0 0 0 0 1 0 0 0 0
12	32906 27 0 0 0 0 3 0 2 2 4
13	32933 9 0 0 0 0 1 0 0 0 0
14	32942 27 0 0 0 0 3 0 2 2 4
15	32969 9 0 0 0 0 1 0 0 0 0
16	32978 27 0 0 0 0 3 0 2 2 4
17	33005 9 0 0 0 0 1 0 0 0 0
18	33014 27 0 0 0 0 3 0 2 2 4
19	33041 9 0 0 0 0 1 0 0 0 0
20	33050 27 0 0 0 0 3 0 2 2 4
21	33077 9 0 0 0 0 1 0 0 0 0
22	33086 27 0 0 0 0 3 0 2 2 4
23	33113 9 0 0 0 0 1 0 0 0 0
24	33122 27 0 0 0 0 3 0 2 2 4
25	33149 9 0 0 0 0 1 0 0 0 0
26	33158 27 0 0 0 0 3 0 2 2 4
27	33185 9 0 0 0 0 1 0 0 0 0
28	33194 27 0 0 0 0 3 0 2 2 4
29	33221 9 0 0 0 0 1 0 0 0 0
30	33230 27 0 0 0 0 3 0 2 2 4
31	33257 9 0 0 0 0 1 0 0 0 0
32	33266 27 0 0 0 0 3 0 2 2 4
33	33293 9 0 0 0 0 1 0 0 0 0
34	33302 27 0 0 0 0 3 0 2 2 4
35	33329 9 0 0 0 0 1 0 0 0 0
36	33338 27 0 0 0 0 3 0 2 2 4
37	33365 9 0 0 0 0 1 0 0 0 0
38	33374 27 0 0 0 0 3 0 2 2 4
39	33401 9 0 0 0 0 1 0 0 0 0
40	33410 55 0 63 0 0.005570135023 3 0 1 2 2
41	33465 55 0 76 0 0.005570635369 3 1 3 5 11
42	33520 9 0 0 0 0 1 1 1 1 1
43	33529 9 0 0 0 0 1 1 1 1 1
44	33538 55 0 64 0 0.005570301805 3 1 3 5 11
45	33593 55 0 70 0 0.005570468587 3 1 3 5 11
46	33648 9 0 0 0 0 1 1 1 1 1
47	33657 9 0 0 0 0 1 1 1 1 1
48	33666 9 0 0 0 0 1 1 1 1 1
49	33675 9 0 0 0 0 1 1 1 1 1
50	33684 9 0 0 0 0 1 1 1 1 1
51	33693 9 0 0 0 0 1 1 1 1 1
52	33702 9 0 0 0 0 1 1 1 1 1
53	33711 9 0 0 0 0 1 1 1 1 1
54	33720 9 0 0 0 0 1 1 1 1 1
55	33729 9 0 0 0 0 1 1 1 1 1
56	33738 9 0 0 0 0 1 1 1 1 1
57	33747 9 0 0 0 0 1 1 1 1 1
58	33756 9 0 0 0 0 1 1 1 1 1
59	33765 9 0 0 0 0 1 1 1 1 1
60	33774 10 0 0 0 0 1 31 31 31 961
61	33784 10 0 0 0 0 1 31 31 31 961
62	33794 10 0 0 0 0 1 31 31 31 961
63	33804 10 0 0 0 0 1 31 31 31 961
64	33814 10 0 0 0 0 1 31 31 31 961
65	33824 10 0 0 0 0 1 31 31 31 961
66	33834 10 0 0 0 0 1 31 31 31 961
67	33844 10 0 0 0 0 1 31 31 31 961
68	33854 10 0 0 0 0 1 31 31 31 961
69	33864 10 0 0 0 0 1 31 31 31 961
70	33874 10 0 0 0 0 1 31 31 31 961
71	33884 10 0 0 0 0 1 31 31 31 961
72	33894 10 0 0 0 0 1 31 31 31 961
73	33904 10 0 0 0 0 1 31 31 31 961
74	33914 10 0 0 0 0 1 31 31 31 961
75	33924 10 0 0 0 0 1 31 31 31 961
76	33934 10 0 0 0 0 1 31 31 31 961
77	33944 10 0 0 0 0 1 31 31 31 961
78	33954 10 0 0 0 0 1 31 31 31 961
79	33964 10 0 0 0 0 1 31 31 31 961
80	33974 25 33 33 0.005488135023 0.005488135023 1 100 100 100 10000
81	33999 25 35 35 0.005488135023 0.005488135023 1 108 108 108 11664
82	34024 25 38 38 0.005488135023 0.005488135023 1 132 132 132 17424
83	34049 25 38 38 0.005488135023 0.005488135023 1 160 160 160 25600
84	34074 46 38 40 0.005488135023 0.005488135023 2 0 1 1 1
85	34120 24 38 38 0.005488135023 0.005488135023 1 27 27 27 729
86	34144 46 38 39 0.005488135023 0.005488135023 2 0 1 1 1
87	34190 25 40 40 0.005488135023 0.005488135023 1 160 160 160 25600
88	34215 23 40 40 0.005488135023 0.005488135023 1 0 0 0 0
89	34238 46 40 62 0.005488135023 0.005570135023 2 0 1 1 1
90	34284 30 40 40 0.005488135023 0.005488135023 1 24000000 24000000 24000000 5.76e+14
91	34314 25 40 40 0.005488135023 0.005488135023 1 160 160 160 25600
92	34339 46 40 62 0.005488135023 0.005570135023 2 0 1 1 1
93	34385 92 41 63 0.005488135023 0.005570135023 4 0 2 4 6
94	34477 25 62 62 0.005570135023 0.005570135023 1 160 160 160 25600
95	34502 25 62 62 0.005570135023 0.005570135023 1 160 160 160 25600
96	34527 25 62 62 0.005570135023 0.005570135023 1 160 160 160 25600
97	34552 29 62 62 0.005570135023 0.005570135023 1 8.2e-05 8.2e-05 8.2e-05 6.724e-09
98	34581 25 65 65 0.005570301805 0.005570301805 1 160 160 160 25600
99	34606 25 65 65 0.005570301805 0.005570301805 1 160 160 160 25600
100	34631 26 65 65 0.005570301805 0.005570301805 1 160 160 160 25600
101	34657 26 65 65 0.005570301805 0.005570301805 1 160 160 160 25600
102	34683 26 65 65 0.005570301805 0.005570301805 1 132 132 132 17424
103	34709 26 69 69 0.005570301805 0.005570301805 1 126 126 126 15876
104	34735 26 69 69 0.005570301805 0.005570301805 1 154 154 154 23716
105	34761 24 69 69 0.005570301805 0.005570301805 1 1 1 1 1
106	34785 25 69 69 0.005570301805 0.005570301805 1 19 19 19 361
107	34810 24 69 69 0.005570301805 0.005570301805 1 1 1 1 1
108	34834 26 71 71 0.005570468587 0.005570468587 1 160 160 160 25600
109	34860 26 71 71 0.005570468587 0.005570468587 1 160 160 160 25600
110	34886 26 71 71 0.005570468587 0.005570468587 1 160 160 160 25600
111	34912 26 71 71 0.005570468587 0.005570468587 1 160 160 160 25600
112	34938 26 71 71 0.005570468587 0.005570468587 1 132 132 132 17424
113	34964 26 75 75 0.005570468587 0.005570468587 1 126 126 126 15876
114	34990 26 75 75 0.005570468587 0.005570468587 1 154 154 154 23716
115	35016 24 75 75 0.005570468587 0.005570468587 1 1 1 1 1
116	35040 25 75 75 0.005570468587 0.005570468587 1 29 29 29 841
117	35065 24 75 75 0.005570468587 0.005570468587 1 1 1 1 1
118	35089 26 80 80 0.005570635369 0.005570635369 1 160 160 160 25600
119	35115 26 80 80 0.005570635369 0.005570635369 1 160 160 160 25600
120	35141 26 80 80 0.005570635369 0.005570635369 1 160 160 160 25600
121	35167 26 80 80 0.005570635369 0.005570635369 1 160 160 160 25600
122	35193 26 80 80 0.005570635369 0.005570635369 1 132 132 132 17424
123	35219 26 84 84 0.005570635369 0.005570635369 1 132 132 132 17424
124	35245 26 84 84 0.005570635369 0.005570635369 1 160 160 160 25600
125	35271 24 84 84 0.005570635369 0.005570635369 1 1 1 1 1
126	35295 25 84 84 0.005570635369 0.005570635369 1 19 19 19 361
127	35320 24 84 84 0.005570635369 0.005570635369 1 1 1 1 1
128	35344 26 98 98 0.005928446164 0.005928446164 1 100 100 100 10000
129	35370 27 100 100 0.005928446164 0.005928446164 1 108 108 108 11664
vector 130 NetworkModified.host[4].wlan[0].mac.dcf.channelAccess.pendingQueue packetPopped:vector(packetBytes) ETV
attr interpolationmode none
attr title "packet popped, vector(packetBytes)"
vector 131 NetworkModified.host[4].wlan[0].mac.dcf.channelAccess.pendingQueue queueingTime:vector ETV
attr interpolationmode none
attr source queueingTime(packetPopped)
attr title "queueing times, vector"
attr unit s
vector 132 NetworkModified.host[4].wlan[0].mac.dcf.channelAccess.inProgressFrames queueLength:vector ETV
attr interpolationmode sample-hold
attr source "count(packetEnqueued) - count(packetDequeued)"
attr title "queue length, vector"
vector 133 NetworkModified.host[4].wlan[0].mac.dcf datarateSelected:vector ETV
attr interpolationmode none
attr title "datarates selected, vector"
vector 134 NetworkModified.host[4].wlan[0].mac packetSentToLower:vector(packetBytes) ETV
attr interpolationmode none
attr title "packets sent to lower layer, vector(packetBytes)"
vector 135 NetworkModified.host[4].wlan[0].mac.dcf frameSequenceActive:vector ETV
attr interpolationmode sample-hold
attr source count(frameSequenceStarted)-count(frameSequenceFinished)
attr title "frame sequence active, vector"
vector 136 NetworkModified.host[4].wlan[0].radio transmissionState:vector ETV
attr interpolationmode sample-hold
attr source transmissionStateChanged
attr title "Radio transmission state, vector"
vector 137 NetworkModified.host[1].wlan[0].mac.dcf.channelAccess.pendingQueue packetPopped:vector(packetBytes) ETV
attr interpolationmode none
attr title "packet popped, vector(packetBytes)"
vector 138 NetworkModified.host[1].wlan[0].mac.dcf.channelAccess.pendingQueue queueingTime:vector ETV
attr interpolationmode none
attr source queueingTime(packetPopped)
attr title "queueing times, vector"
attr unit s
vector 139 NetworkModified.host[1].wlan[0].mac.dcf.channelAccess.inProgressFrames queueLength:vector ETV
attr interpolationmode sample-hold
attr source "count(packetEnqueued) - count(packetDequeued)"
attr title "queue length, vector"
vector 140 NetworkModified.host[1].wlan[0].mac.dcf datarateSelected:vector ETV
attr interpolationmode none
attr title "datarates selected, vector"
vector 141 NetworkModified.host[1].wlan[0].mac packetSentToLower:vector(packetBytes) ETV
attr interpolationmode none
attr title "packets sent to lower layer, vector(packetBytes)"
vector 142 NetworkModified.host[1].wlan[0].mac.dcf frameSequenceActive:vector ETV
attr interpolationmode sample-hold
attr source count(frameSequenceStarted)-count(frameSequenceFinished)
attr title "frame sequence active, vector"
vector 143 NetworkModified.host[1].wlan[0].radio transmissionState:vector ETV
attr interpolationmode sample-hold
attr source transmissionStateChanged
attr title "Radio transmission state, vector"
vector 144 NetworkModified.host[4].wlan[0].mac.dcf packetSentToPeer:vector(packetBytes) ETV
attr interpolationmode none
attr title "packets sent, vector(packetBytes)"
vector 145 NetworkModified.host[4].wlan[0].mac.dcf packetSentToPeerMulticast:vector(packetBytes) ETV
attr interpolationmode none
attr source ieee80211Multicast(packetSentToPeer)
attr title "packets sent: multicast, vector(packetBytes)"
vector 146 NetworkModified.host[4].wlan[0].mac.dcf packetSentToPeerWithoutRetry:vector(packetBytes) ETV
attr interpolationmode none
attr source ieee80211NotRetry(packetSentToPeer)
attr title "packets sent: without retry, vector(packetBytes)"
vector 147 NetworkModified.host[4].wlan[0].mac.dcf.channelAccess.inProgressFrames queueingTime:vector ETV
attr interpolationmode none
attr source queueingTime(packetDequeued)
attr title "queueing times, vector"
vector 148 NetworkModified.host[0].wlan[0].mac packetReceivedFromLower:vector(packetBytes) ETV
attr interpolationmode none
attr title "packets received from lower layer, vector(packetBytes)"
vector 149 NetworkModified.host[0].wlan[0].mac packetDrop:vector(packetBytes) ETV
attr interpolationmode none
attr source packetDropped
attr title "packet drops, vector(packetBytes)"
vector 150 NetworkModified.host[0].wlan[0].mac packetDropIncorrectlyReceived:vector(packetBytes) ETV
attr interpolationmode none
attr source packetDropReasonIsIncorrectlyReceived(packetDropped)
attr title "packet drops: incorrectly received, vector(packetBytes)"
vector 151 NetworkModified.host[1].wlan[0].mac.dcf packetSentToPeer:vector(packetBytes) ETV
attr interpolationmode none
attr title "packets sent, vector(packetBytes)"
vector 152 NetworkModified.host[1].wlan[0].mac.dcf packetSentToPeerMulticast:vector(packetBytes) ETV
attr interpolationmode none
attr source ieee80211Multicast(packetSentToPeer)
attr title "packets sent: multicast, vector(packetBytes)"
vector 153 NetworkModified.host[1].wlan[0].mac.dcf packetSentToPeerWithoutRetry:vector(packetBytes) ETV
attr interpolationmode none
attr source ieee80211NotRetry(packetSentToPeer)
attr title "packets sent: without retry, vector(packetBytes)"
vector 154 NetworkModified.host[1].wlan[0].mac.dcf.channelAccess.inProgressFrames queueingTime:vector ETV
attr interpolationmode none
attr source queueingTime(packetDequeued)
attr title "queueing times, vector"
vector 155 NetworkModified.host[6].wlan[0].mac packetReceivedFromLower:vector(packetBytes) ETV
attr interpolationmode none
attr title "packets received from lower layer, vector(packetBytes)"
vector 156 NetworkModified.host[6].wlan[0].mac packetDrop:vector(packetBytes) ETV
attr interpolationmode none
attr source packetDropped
attr title "packet drops, vector(packetBytes)"
vector 157 NetworkModified.host[6].wlan[0].mac packetDropIncorrectlyReceived:vector(packetBytes) ETV
attr interpolationmode none
attr source packetDropReasonIsIncorrectlyReceived(packetDropped)
attr title "packet drops: incorrectly received, vector(packetBytes)"
vector 158 NetworkModified.host[7].wlan[0].mac packetReceivedFromLower:vector(packetBytes) ETV
attr interpolationmode none
attr title "packets received from lower layer, vector(packetBytes)"
vector 159 NetworkModified.host[7].wlan[0].mac.dcf packetReceivedFromPeer:vector(packetBytes) ETV
attr interpolationmode none
attr title "packets received, vector(packetBytes)"
vector 160 NetworkModified.host[7].wlan[0].mac.dcf packetReceivedFromPeerMulticast:vector(packetBytes) ETV
attr interpolationmode none
attr source ieee80211Multicast(packetReceivedFromPeer)
attr title "packets received: multicast, vector(packetBytes)"
vector 161 NetworkModified.host[7].wlan[0].mac.dcf packetReceivedFromPeerWithoutRetry:vector(packetBytes) ETV
attr interpolationmode none
attr source ieee80211NotRetry(packetReceivedFromPeer)
attr title "packets received: without retry, vector(packetBytes)"
vector 162 NetworkModified.host[7].wlan[0].mac packetSentToUpper:vector(packetBytes) ETV
attr interpolationmode none
attr title "packets sent to upper layer, vector(packetBytes)"
vector 163 NetworkModified.host[7].wlan[0].mac packetReceivedFromUpper:vector(packetBytes) ETV
attr interpolationmode none
attr title "packets received from upper layer, vector(packetBytes)"
vector 164 NetworkModified.host[7].wlan[0].mac.dcf.channelAccess.pendingQueue packetPushed:vector(packetBytes) ETV
attr interpolationmode none
attr title "packet pushed, vector(packetBytes)"
vector 165 NetworkModified.host[7].wlan[0].mac.dcf.channelAccess.pendingQueue queueLength:vector ETV
attr interpolationmode sample-hold
attr source "count(packetPushed) - count(packetPopped) - count(packetRemoved) - count(packetDropped)"
attr title "queue length, vector"
vector 166 NetworkModified.host[7].wlan[0].mac.dcf.channelAccess.contention backoffPeriodGenerated:vector ETV
attr interpolationmode none
attr title "backoff periods, vector"
vector 167 NetworkModified.host[7].wlan[0].mac.dcf.channelAccess.contention backoffActive:vector ETV
attr interpolationmode sample-hold
attr source count(backoffStarted)-count(backoffStopped)
attr title "backoff active, vector"
vector 168 NetworkModified.host[8].wlan[0].mac packetReceivedFromLower:vector(packetBytes) ETV
attr interpolationmode none
attr title "packets received from lower layer, vector(packetBytes)"
vector 169 NetworkModified.host[8].wlan[0].mac.dcf packetReceivedFromPeer:vector(packetBytes) ETV
attr interpolationmode none
attr title "packets received, vector(packetBytes)"
vector 170 NetworkModified.host[8].wlan[0].mac.dcf packetReceivedFromPeerMulticast:vector(packetBytes) ETV
attr interpolationmode none
attr source ieee80211Multicast(packetReceivedFromPeer)
attr title "packets received: multicast, vector(packetBytes)"
vector 171 NetworkModified.host[8].wlan[0].mac.dcf packetReceivedFromPeerWithoutRetry:vector(packetBytes) ETV
attr interpolationmode none
attr source ieee80211NotRetry(packetReceivedFromPeer)
attr title "packets received: without retry, vector(packetBytes)"
vector 172 NetworkModified.host[8].wlan[0].mac packetSentToUpper:vector(packetBytes) ETV
attr interpolationmode none
attr title "packets sent to upper layer, vector(packetBytes)"
vector 173 NetworkModified.host[8].wlan[0].mac packetReceivedFromUpper:vector(packetBytes) ETV
attr interpolationmode none
attr title "packets received from upper layer, vector(packetBytes)"
vector 174 NetworkModified.host[8].wlan[0].mac.dcf.channelAccess.pendingQueue packetPushed:vector(packetBytes) ETV
attr interpolationmode none
attr title "packet pushed, vector(packetBytes)"
vector 175 NetworkModified.host[8].wlan[0].mac.dcf.channelAccess.pendingQueue queueLength:vector ETV
attr interpolationmode sample-hold
attr source "count(packetPushed) - count(packetPopped) - count(packetRemoved) - count(packetDropped)"
attr title "queue length, vector"
vector 176 NetworkModified.host[8].wlan[0].mac.dcf.channelAccess.contention backoffPeriodGenerated:vector ETV
attr interpolationmode none
attr title "backoff periods, vector"
vector 177 NetworkModified.host[8].wlan[0].mac.dcf.channelAccess.contention backoffActive:vector ETV
attr interpolationmode sample-hold
attr source count(backoffStarted)-count(backoffStopped)
attr title "backoff active, vector"
vector 178 NetworkModified.host[8].wlan[0].mac.dcf.channelAccess.pendingQueue packetPopped:vector(packetBytes) ETV
attr interpolationmode none
attr title "packet popped, vector(packetBytes)"
vector 179 NetworkModified.host[8].wlan[0].mac.dcf.channelAccess.pendingQueue queueingTime:vector ETV
attr interpolationmode none
attr source queueingTime(packetPopped)
attr title "queueing times, vector"
attr unit s
vector 180 NetworkModified.host[8].wlan[0].mac.dcf.channelAccess.inProgressFrames queueLength:vector ETV
attr interpolationmode sample-hold
attr source "count(packetEnqueued) - count(packetDequeued)"
attr title "queue length, vector"
vector 181 NetworkModified.host[8].wlan[0].mac.dcf datarateSelected:vector ETV
attr interpolationmode none
attr title "datarates selected, vector"
vector 182 NetworkModified.host[8].wlan[0].mac packetSentToLower:vector(packetBytes) ETV
attr interpolationmode none
attr title "packets sent to lower layer, vector(packetBytes)"
vector 183 NetworkModified.host[8].wlan[0].mac.dcf frameSequenceActive:vector ETV
attr interpolationmode sample-hold
attr source count(frameSequenceStarted)-count(frameSequenceFinished)
attr title "frame sequence active, vector"
vector 184 NetworkModified.host[8].wlan[0].radio transmissionState:vector ETV
attr interpolationmode sample-hold
attr source transmissionStateChanged
attr title "Radio transmission state, vector"
vector 185 NetworkModified.host[8].wlan[0].mac.dcf packetSentToPeer:vector(packetBytes) ETV
attr interpolationmode none
attr title "packets sent, vector(packetBytes)"
vector 186 NetworkModified.host[8].wlan[0].mac.dcf packetSentToPeerMulticast:vector(packetBytes) ETV
attr interpolationmode none
attr source ieee80211Multicast(packetSentToPeer)
attr title "packets sent: multicast, vector(packetBytes)"
vector 187 NetworkModified.host[8].wlan[0].mac.dcf packetSentToPeerWithoutRetry:vector(packetBytes) ETV
attr interpolationmode none
attr source ieee80211NotRetry(packetSentToPeer)
attr title "packets sent: without retry, vector(packetBytes)"
vector 188 NetworkModified.host[8].wlan[0].mac.dcf.channelAccess.inProgressFrames queueingTime:vector ETV
attr interpolationmode none
attr source queueingTime(packetDequeued)
attr title "queueing times, vector"
vector 189 NetworkModified.host[17].wlan[0].mac packetReceivedFromLower:vector(packetBytes) ETV
attr interpolationmode none
attr title "packets received from lower layer, vector(packetBytes)"
vector 190 NetworkModified.host[17].wlan[0].mac.dcf packetReceivedFromPeer:vector(packetBytes) ETV
attr interpolationmode none
attr title "packets received, vector(packetBytes)"
vector 191 NetworkModified.host[17].wlan[0].mac.dcf packetReceivedFromPeerMulticast:vector(packetBytes) ETV
attr interpolationmode none
attr source ieee80211Multicast(packetReceivedFromPeer)
attr title "packets received: multicast, vector(packetBytes)"
vector 192 NetworkModified.host[17].wlan[0].mac.dcf packetReceivedFromPeerWithoutRetry:vector(packetBytes) ETV
attr interpolationmode none
attr source ieee80211NotRetry(packetReceivedFromPeer)
attr title "packets received: without retry, vector(packetBytes)"
vector 193 NetworkModified.host[17].wlan[0].mac packetSentToUpper:vector(packetBytes) ETV
attr interpolationmode none
attr title "packets sent to upper layer, vector(packetBytes)"
vector 194 NetworkModified.host[17].wlan[0].mac packetReceivedFromUpper:vector(packetBytes) ETV
attr interpolationmode none
attr title "packets received from upper layer, vector(packetBytes)"
vector 195 NetworkModified.host[17].wlan[0].mac.dcf.channelAccess.pendingQueue packetPushed:vector(packetBytes) ETV
attr interpolationmode none
attr title "packet pushed, vector(packetBytes)"
vector 196 NetworkModified.host[17].wlan[0].mac.dcf.channelAccess.pendingQueue queueLength:vector ETV
attr interpolationmode sample-hold
attr source "count(packetPushed) - count(packetPopped) - count(packetRemoved) - count(packetDropped)"
attr title "queue length, vector"
vector 197 NetworkModified.host[17].wlan[0].mac.dcf.channelAccess.contention backoffPeriodGenerated:vector ETV
attr interpolationmode none
attr title "backoff periods, vector"
vector 198 NetworkModified.host[17].wlan[0].mac.dcf.channelAccess.contention backoffActive:vector ETV
attr interpolationmode sample-hold
attr source count(backoffStarted)-count(backoffStopped)
attr title "backoff active, vector"
vector 199 NetworkModified.host[10].wlan[0].mac packetReceivedFromLower:vector(packetBytes) ETV
attr interpolationmode none
attr title "packets received from lower layer, vector(packetBytes)"
vector 200 NetworkModified.host[10].wlan[0].mac.dcf packetReceivedFromPeer:vector(packetBytes) ETV
attr interpolationmode none
attr title "packets received, vector(packetBytes)"
vector 201 NetworkModified.host[10].wlan[0].mac.dcf packetReceivedFromPeerMulticast:vector(packetBytes) ETV
attr interpolationmode none
attr source ieee80211Multicast(packetReceivedFromPeer)
attr title "packets received: multicast, vector(packetBytes)"
vector 202 NetworkModified.host[10].wlan[0].mac.dcf packetReceivedFromPeerWithoutRetry:vector(packetBytes) ETV
attr interpolationmode none
attr source ieee80211NotRetry(packetReceivedFromPeer)
attr title "packets received: without retry, vector(packetBytes)"
vector 203 NetworkModified.host[10].wlan[0].mac packetSentToUpper:vector(packetBytes) ETV
attr interpolationmode none
attr title "packets sent to upper layer, vector(packetBytes)"
vector 204 NetworkModified.host[10].wlan[0].mac packetReceivedFromUpper:vector(packetBytes) ETV
attr interpolationmode none
attr title "packets received from upper layer, vector(packetBytes)"
vector 205 NetworkModified.host[10].wlan[0].mac.dcf.channelAccess.pendingQueue packetPushed:vector(packetBytes) ETV
attr interpolationmode none
attr title "packet pushed, vector(packetBytes)"
vector 206 NetworkModified.host[10].wlan[0].mac.dcf.channelAccess.pendingQueue queueLength:vector ETV
attr interpolationmode sample-hold
attr source "count(packetPushed) - count(packetPopped) - count(packetRemoved) - count(packetDropped)"
attr title "queue length, vector"
vector 207 NetworkModified.host[10].wlan[0].mac.dcf.channelAccess.contention backoffPeriodGenerated:vector ETV
attr interpolationmode none
attr title "backoff periods, vector"
vector 208 NetworkModified.host[10].wlan[0].mac.dcf.channelAccess.contention backoffActive:vector ETV
attr interpolationmode sample-hold
attr source count(backoffStarted)-count(backoffStopped)
attr title "backoff active, vector"
vector 209 NetworkModified.host[5].wlan[0].mac.dcf.channelAccess.pendingQueue packetPopped:vector(packetBytes) ETV
attr interpolationmode none
attr title "packet popped, vector(packetBytes)"
vector 210 NetworkModified.host[5].wlan[0].mac.dcf.channelAccess.pendingQueue queueingTime:vector ETV
attr interpolationmode none
attr source queueingTime(packetPopped)
attr title "queueing times, vector"
attr unit s
vector 211 NetworkModified.host[5].wlan[0].mac.dcf.channelAccess.inProgressFrames queueLength:vector ETV
attr interpolationmode sample-hold
attr source "count(packetEnqueued) - count(packetDequeued)"
attr title "queue length, vector"
vector 212 NetworkModified.host[5].wlan[0].mac.dcf datarateSelected:vector ETV
attr interpolationmode none
attr title "datarates selected, vector"
vector 213 NetworkModified.host[5].wlan[0].mac packetSentToLower:vector(packetBytes) ETV
attr interpolationmode none
attr title "packets sent to lower layer, vector(packetBytes)"
vector 214 NetworkModified.host[5].wlan[0].mac.dcf frameSequenceActive:vector ETV
attr interpolationmode sample-hold
attr source count(frameSequenceStarted)-count(frameSequenceFinished)
attr title "frame sequence active, vector"
vector 215 NetworkModified.host[5].wlan[0].radio transmissionState:vector ETV
attr interpolationmode sample-hold
attr source transmissionStateChanged
attr title "Radio transmission state, vector"
vector 216 NetworkModified.host[5].wlan[0].mac.dcf packetSentToPeer:vector(packetBytes) ETV
attr interpolationmode none
attr title "packets sent, vector(packetBytes)"
vector 217 NetworkModified.host[5].wlan[0].mac.dcf packetSentToPeerMulticast:vector(packetBytes) ETV
attr interpolationmode none
attr source ieee80211Multicast(packetSentToPeer)
attr title "packets sent: multicast, vector(packetBytes)"
vector 218 NetworkModified.host[5].wlan[0].mac.dcf packetSentToPeerWithoutRetry:vector(packetBytes) ETV
attr interpolationmode none
attr source ieee80211NotRetry(packetSentToPeer)
attr title "packets sent: without retry, vector(packetBytes)"
vector 219 NetworkModified.host[5].wlan[0].mac.dcf.channelAccess.inProgressFrames queueingTime:vector ETV
attr interpolationmode none
attr source queueingTime(packetDequeued)
attr title "queueing times, vector"
vector 220 NetworkModified.host[6].wlan[0].mac.dcf packetReceivedFromPeer:vector(packetBytes) ETV
attr interpolationmode none
attr title "packets received, vector(packetBytes)"
vector 221 NetworkModified.host[6].wlan[0].mac.dcf packetReceivedFromPeerMulticast:vector(packetBytes) ETV
attr interpolationmode none
attr source ieee80211Multicast(packetReceivedFromPeer)
attr title "packets received: multicast, vector(packetBytes)"
vector 222 NetworkModified.host[6].wlan[0].mac.dcf packetReceivedFromPeerWithoutRetry:vector(packetBytes) ETV
attr interpolationmode none
attr source ieee80211NotRetry(packetReceivedFromPeer)
attr title "packets received: without retry, vector(packetBytes)"
vector 223 NetworkModified.host[6].wlan[0].mac packetSentToUpper:vector(packetBytes) ETV
attr interpolationmode none
attr title "packets sent to upper layer, vector(packetBytes)"
vector 224 NetworkModified.host[6].wlan[0].mac packetReceivedFromUpper:vector(packetBytes) ETV
attr interpolationmode none
attr title "packets received from upper layer, vector(packetBytes)"
vector 225 NetworkModified.host[6].wlan[0].mac.dcf.channelAccess.pendingQueue packetPushed:vector(packetBytes) ETV
attr interpolationmode none
attr title "packet pushed, vector(packetBytes)"
vector 226 NetworkModified.host[6].wlan[0].mac.dcf.channelAccess.pendingQueue queueLength:vector ETV
attr interpolationmode sample-hold
attr source "count(packetPushed) - count(packetPopped) - count(packetRemoved) - count(packetDropped)"
attr title "queue length, vector"
vector 227 NetworkModified.host[6].wlan[0].mac.dcf.channelAccess.contention backoffPeriodGenerated:vector ETV
attr interpolationmode none
attr title "backoff periods, vector"
vector 228 NetworkModified.host[6].wlan[0].mac.dcf.channelAccess.contention backoffActive:vector ETV
attr interpolationmode sample-hold
attr source count(backoffStarted)-count(backoffStopped)
attr title "backoff active, vector"
vector 229 NetworkModified.host[7].wlan[0].mac.dcf.channelAccess.pendingQueue packetPopped:vector(packetBytes) ETV
attr interpolationmode none
attr title "packet popped, vector(packetBytes)"
vector 230 NetworkModified.host[7].wlan[0].mac.dcf.channelAccess.pendingQueue queueingTime:vector ETV
attr interpolationmode none
attr source queueingTime(packetPopped)
attr title "queueing times, vector"
attr unit s
vector 231 NetworkModified.host[7].wlan[0].mac.dcf.channelAccess.inProgressFrames queueLength:vector ETV
attr interpolationmode sample-hold
attr source "count(packetEnqueued) - count(packetDequeued)"
attr title "queue length, vector"
vector 232 NetworkModified.host[7].wlan[0].mac.dcf datarateSelected:vector ETV
attr interpolationmode none
attr title "datarates selected, vector"
vector 233 NetworkModified.host[7].wlan[0].mac packetSentToLower:vector(packetBytes) ETV
attr interpolationmode none
attr title "packets sent to lower layer, vector(packetBytes)"
vector 234 NetworkModified.host[7].wlan[0].mac.dcf frameSequenceActive:vector ETV
attr interpolationmode sample-hold
attr source count(frameSequenceStarted)-count(frameSequenceFinished)
attr title "frame sequence active, vector"
vector 235 NetworkModified.host[7].wlan[0].radio transmissionState:vector ETV
attr interpolationmode sample-hold
attr source transmissionStateChanged
attr title "Radio transmission state, vector"
vector 236 NetworkModified.host[6].wlan[0].mac.dcf.channelAccess.pendingQueue packetPopped:vector(packetBytes) ETV
attr interpolationmode none
attr title "packet popped, vector(packetBytes)"
vector 237 NetworkModified.host[6].wlan[0].mac.dcf.channelAccess.pendingQueue queueingTime:vector ETV
attr interpolationmode none
attr source queueingTime(packetPopped)
attr title "queueing times, vector"
attr unit s
vector 238 NetworkModified.host[6].wlan[0].mac.dcf.channelAccess.inProgressFrames queueLength:vector ETV
attr interpolationmode sample-hold
attr source "count(packetEnqueued) - count(packetDequeued)"
attr title "queue length, vector"
vector 239 NetworkModified.host[6].wlan[0].mac.dcf datarateSelected:vector ETV
attr interpolationmode none
attr title "datarates selected, vector"
vector 240 NetworkModified.host[6].wlan[0].mac packetSentToLower:vector(packetBytes) ETV
attr interpolationmode none
attr title "packets sent to lower layer, vector(packetBytes)"
vector 241 NetworkModified.host[6].wlan[0].mac.dcf frameSequenceActive:vector ETV
attr interpolationmode sample-hold
attr source count(frameSequenceStarted)-count(frameSequenceFinished)
attr title "frame sequence active, vector"
vector 242 NetworkModified.host[6].wlan[0].radio transmissionState:vector ETV
attr interpolationmode sample-hold
attr source transmissionStateChanged
attr title "Radio transmission state, vector"
vector 243 NetworkModified.host[7].wlan[0].mac.dcf packetSentToPeer:vector(packetBytes) ETV
attr interpolationmode none
attr title "packets sent, vector(packetBytes)"
vector 244 NetworkModified.host[7].wlan[0].mac.dcf packetSentToPeerMulticast:vector(packetBytes) ETV
attr interpolationmode none
attr source ieee80211Multicast(packetSentToPeer)
attr title "packets sent: multicast, vector(packetBytes)"
vector 245 NetworkModified.host[7].wlan[0].mac.dcf packetSentToPeerWithoutRetry:vector(packetBytes) ETV
attr interpolationmode none
attr source ieee80211NotRetry(packetSentToPeer)
attr title "packets sent: without retry, vector(packetBytes)"
vector 246 NetworkModified.host[7].wlan[0].mac.dcf.channelAccess.inProgressFrames queueingTime:vector ETV
attr interpolationmode none
attr source queueingTime(packetDequeued)
attr title "queueing times, vector"
vector 247 NetworkModified.host[9].wlan[0].mac packetReceivedFromLower:vector(packetBytes) ETV
attr interpolationmode none
attr title "packets received from lower layer, vector(packetBytes)"
vector 248 NetworkModified.host[9].wlan[0].mac.dcf packetReceivedFromPeer:vector(packetBytes) ETV
attr interpolationmode none
attr title "packets received, vector(packetBytes)"
vector 249 NetworkModified.host[9].wlan[0].mac.dcf packetReceivedFromPeerMulticast:vector(packetBytes) ETV
attr interpolationmode none
attr source ieee80211Multicast(packetReceivedFromPeer)
attr title "packets received: multicast, vector(packetBytes)"
vector 250 NetworkModified.host[9].wlan[0].mac.dcf packetReceivedFromPeerWithoutRetry:vector(packetBytes) ETV
attr interpolationmode none
attr source ieee80211NotRetry(packetReceivedFromPeer)
attr title "packets received: without retry, vector(packetBytes)"
vector 251 NetworkModified.host[9].wlan[0].mac packetSentToUpper:vector(packetBytes) ETV
attr interpolationmode none
attr title "packets sent to upper layer, vector(packetBytes)"
vector 252 NetworkModified.host[9].wlan[0].mac packetReceivedFromUpper:vector(packetBytes) ETV
attr interpolationmode none
attr title "packets received from upper layer, vector(packetBytes)"
vector 253 NetworkModified.host[9].wlan[0].mac.dcf.channelAccess.pendingQueue packetPushed:vector(packetBytes) ETV
attr interpolationmode none
attr title "packet pushed, vector(packetBytes)"
vector 254 NetworkModified.host[9].wlan[0].mac.dcf.channelAccess.pendingQueue queueLength:vector ETV
attr interpolationmode sample-hold
attr source "count(packetPushed) - count(packetPopped) - count(packetRemoved) - count(packetDropped)"
attr title "queue length, vector"
vector 255 NetworkModified.host[9].wlan[0].mac.dcf.channelAccess.contention backoffPeriodGenerated:vector ETV
attr interpolationmode none
attr title "backoff periods, vector"
vector 256 NetworkModified.host[9].wlan[0].mac.dcf.channelAccess.contention backoffActive:vector ETV
attr interpolationmode sample-hold
attr source count(backoffStarted)-count(backoffStopped)
attr title "backoff active, vector"
vector 257 NetworkModified.host[6].wlan[0].mac.dcf packetSentToPeer:vector(packetBytes) ETV
attr interpolationmode none
attr title "packets sent, vector(packetBytes)"
vector 258 NetworkModified.host[6].wlan[0].mac.dcf packetSentToPeerMulticast:vector(packetBytes) ETV
attr interpolationmode none
attr source ieee80211Multicast(packetSentToPeer)
attr title "packets sent: multicast, vector(packetBytes)"
vector 259 NetworkModified.host[6].wlan[0].mac.dcf packetSentToPeerWithoutRetry:vector(packetBytes) ETV
attr interpolationmode none
attr source ieee80211NotRetry(packetSentToPeer)
attr title "packets sent: without retry, vector(packetBytes)"
vector 260 NetworkModified.host[6].wlan[0].mac.dcf.channelAccess.inProgressFrames queueingTime:vector ETV
attr interpolationmode none
attr source queueingTime(packetDequeued)
attr title "queueing times, vector"
vector 261 NetworkModified.host[16].wlan[0].mac packetReceivedFromLower:vector(packetBytes) ETV
attr interpolationmode none
attr title "packets received from lower layer, vector(packetBytes)"
vector 262 NetworkModified.host[16].wlan[0].mac.dcf packetReceivedFromPeer:vector(packetBytes) ETV
attr interpolationmode none
attr title "packets received, vector(packetBytes)"
vector 263 NetworkModified.host[16].wlan[0].mac.dcf packetReceivedFromPeerMulticast:vector(packetBytes) ETV
attr interpolationmode none
attr source ieee80211Multicast(packetReceivedFromPeer)
attr title "packets received: multicast, vector(packetBytes)"
vector 264 NetworkModified.host[16].wlan[0].mac.dcf packetReceivedFromPeerWithoutRetry:vector(packetBytes) ETV
attr interpolationmode none
attr source ieee80211NotRetry(packetReceivedFromPeer)
attr title "packets received: without retry, vector(packetBytes)"
vector 265 NetworkModified.host[16].wlan[0].mac packetSentToUpper:vector(packetBytes) ETV
attr interpolationmode none
attr title "packets sent to upper layer, vector(packetBytes)"
vector 266 NetworkModified.host[16].udp packetReceived:vector(packetBytes) ETV
attr interpolationmode none
attr source packetReceived
attr title "packets received, vector(packetBytes)"
vector 267 NetworkModified.host[16].udp passedUpPk:vector(count) ETV
attr interpolationmode none
attr source packetSentToUpper
attr title "packets passed up, vector(count)"
vector 268 NetworkModified.host[16].app[0] packetReceived:vector(packetBytes) ETV
attr interpolationmode none
attr source packetReceived
attr title "packets received, vector(packetBytes)"
vector 269 NetworkModified.host[16].app[0] endToEndDelay:vector ETV
attr interpolationmode none
attr source dataAge(packetReceived)
attr title "end-to-end delay, vector"
attr unit s
vector 270 NetworkModified.host[16].app[0] rcvdPkSeqNo:vector ETV
attr interpolationmode none
attr source appPkSeqNo(packetReceived)
attr title "received packet sequence number, vector"
vector 271 NetworkModified.host[17].wlan[0].mac.dcf.channelAccess.pendingQueue packetPopped:vector(packetBytes) ETV
attr interpolationmode none
attr title "packet popped, vector(packetBytes)"
vector 272 NetworkModified.host[17].wlan[0].mac.dcf.channelAccess.pendingQueue queueingTime:vector ETV
attr interpolationmode none
attr source queueingTime(packetPopped)
attr title "queueing times, vector"
attr unit s
vector 273 NetworkModified.host[17].wlan[0].mac.dcf.channelAccess.inProgressFrames queueLength:vector ETV
attr interpolationmode sample-hold
attr source "count(packetEnqueued) - count(packetDequeued)"
attr title "queue length, vector"
vector 274 NetworkModified.host[17].wlan[0].mac.dcf datarateSelected:vector ETV
attr interpolationmode none
attr title "datarates selected, vector"
vector 275 NetworkModified.host[17].wlan[0].mac packetSentToLower:vector(packetBytes) ETV
attr interpolationmode none
attr title "packets sent to lower layer, vector(packetBytes)"
vector 276 NetworkModified.host[17].wlan[0].mac.dcf frameSequenceActive:vector ETV
attr interpolationmode sample-hold
attr source count(frameSequenceStarted)-count(frameSequenceFinished)
attr title "frame sequence active, vector"
vector 277 NetworkModified.host[17].wlan[0].radio transmissionState:vector ETV
attr interpolationmode sample-hold
attr source transmissionStateChanged
attr title "Radio transmission state, vector"
vector 278 NetworkModified.host[10].wlan[0].mac.dcf.channelAccess.pendingQueue packetPopped:vector(packetBytes) ETV
attr interpolationmode none
attr title "packet popped, vector(packetBytes)"
vector 279 NetworkModified.host[10].wlan[0].mac.dcf.channelAccess.pendingQueue queueingTime:vector ETV
attr interpolationmode none
attr source queueingTime(packetPopped)
attr title "queueing times, vector"
attr unit s
vector 280 NetworkModified.host[10].wlan[0].mac.dcf.channelAccess.inProgressFrames queueLength:vector ETV
attr interpolationmode sample-hold
attr source "count(packetEnqueued) - count(packetDequeued)"
attr title "queue length, vector"
vector 281 NetworkModified.host[10].wlan[0].mac.dcf datarateSelected:vector ETV
attr interpolationmode none
attr title "datarates selected, vector"
vector 282 NetworkModified.host[10].wlan[0].mac packetSentToLower:vector(packetBytes) ETV
attr interpolationmode none
attr title "packets sent to lower layer, vector(packetBytes)"
vector 283 NetworkModified.host[10].wlan[0].mac.dcf frameSequenceActive:vector ETV
attr interpolationmode sample-hold
attr source count(frameSequenceStarted)-count(frameSequenceFinished)
attr title "frame sequence active, vector"
vector 284 NetworkModified.host[10].wlan[0].radio transmissionState:vector ETV
attr interpolationmode sample-hold
attr source transmissionStateChanged
attr title "Radio transmission state, vector"
vector 285 NetworkModified.host[17].wlan[0].mac.dcf packetSentToPeer:vector(packetBytes) ETV
attr interpolationmode none
attr title "packets sent, vector(packetBytes)"
vector 286 NetworkModified.host[17].wlan[0].mac.dcf packetSentToPeerMulticast:vector(packetBytes) ETV
attr interpolationmode none
attr source ieee80211Multicast(packetSentToPeer)
attr title "packets sent: multicast, vector(packetBytes)"
vector 287 NetworkModified.host[17].wlan[0].mac.dcf packetSentToPeerWithoutRetry:vector(packetBytes) ETV
attr interpolationmode none
attr source ieee80211NotRetry(packetSentToPeer)
attr title "packets sent: without retry, vector(packetBytes)"
vector 288 NetworkModified.host[17].wlan[0].mac.dcf.channelAccess.inProgressFrames queueingTime:vector ETV
attr interpolationmode none
attr source queueingTime(packetDequeued)
attr title "queueing times, vector"
vector 289 NetworkModified.host[1].wlan[0].mac packetDrop:vector(packetBytes) ETV
attr interpolationmode none
attr source packetDropped
attr title "packet drops, vector(packetBytes)"
vector 290 NetworkModified.host[1].wlan[0].mac packetDropIncorrectlyReceived:vector(packetBytes) ETV
attr interpolationmode none
attr source packetDropReasonIsIncorrectlyReceived(packetDropped)
attr title "packet drops: incorrectly received, vector(packetBytes)"
vector 291 NetworkModified.host[8].wlan[0].mac packetDrop:vector(packetBytes) ETV
attr interpolationmode none
attr source packetDropped
attr title "packet drops, vector(packetBytes)"
vector 292 NetworkModified.host[8].wlan[0].mac packetDropIncorrectlyReceived:vector(packetBytes) ETV
attr interpolationmode none
attr source packetDropReasonIsIncorrectlyReceived(packetDropped)
attr title "packet drops: incorrectly received, vector(packetBytes)"
vector 293 NetworkModified.host[10].wlan[0].mac.dcf packetSentToPeer:vector(packetBytes) ETV
attr interpolationmode none
attr title "packets sent, vector(packetBytes)"
vector 294 NetworkModified.host[10].wlan[0].mac.dcf packetSentToPeerMulticast:vector(packetBytes) ETV
attr interpolationmode none
attr source ieee80211Multicast(packetSentToPeer)
attr title "packets sent: multicast, vector(packetBytes)"
vector 295 NetworkModified.host[10].wlan[0].mac.dcf packetSentToPeerWithoutRetry:vector(packetBytes) ETV
attr interpolationmode none
attr source ieee80211NotRetry(packetSentToPeer)
attr title "packets sent: without retry, vector(packetBytes)"
vector 296 NetworkModified.host[10].wlan[0].mac.dcf.channelAccess.inProgressFrames queueingTime:vector ETV
attr interpolationmode none
attr source queueingTime(packetDequeued)
attr title "queueing times, vector"
vector 297 NetworkModified.host[2].wlan[0].mac packetReceivedFromLower:vector(packetBytes) ETV
attr interpolationmode none
attr title "packets received from lower layer, vector(packetBytes)"
vector 298 NetworkModified.host[2].wlan[0].mac.dcf packetReceivedFromPeer:vector(packetBytes) ETV
attr interpolationmode none
attr title "packets received, vector(packetBytes)"
vector 299 NetworkModified.host[2].wlan[0].mac.dcf packetReceivedFromPeerMulticast:vector(packetBytes) ETV
attr interpolationmode none
attr source ieee80211Multicast(packetReceivedFromPeer)
attr title "packets received: multicast, vector(packetBytes)"
vector 300 NetworkModified.host[2].wlan[0].mac.dcf packetReceivedFromPeerWithoutRetry:vector(packetBytes) ETV
attr interpolationmode none
attr source ieee80211NotRetry(packetReceivedFromPeer)
attr title "packets received: without retry, vector(packetBytes)"
vector 301 NetworkModified.host[2].wlan[0].mac packetSentToUpper:vector(packetBytes) ETV
attr interpolationmode none
attr title "packets sent to upper layer, vector(packetBytes)"
vector 302 NetworkModified.host[11].wlan[0].mac packetReceivedFromLower:vector(packetBytes) ETV
attr interpolationmode none
attr title "packets received from lower layer, vector(packetBytes)"
vector 303 NetworkModified.host[11].wlan[0].mac packetDrop:vector(packetBytes) ETV
attr interpolationmode none
attr source packetDropped
attr title "packet drops, vector(packetBytes)"
vector 304 NetworkModified.host[11].wlan[0].mac packetDropIncorrectlyReceived:vector(packetBytes) ETV
attr interpolationmode none
attr source packetDropReasonIsIncorrectlyReceived(packetDropped)
attr title "packet drops: incorrectly received, vector(packetBytes)"
vector 305 NetworkModified.host[14].wlan[0].mac packetReceivedFromLower:vector(packetBytes) ETV
attr interpolationmode none
attr title "packets received from lower layer, vector(packetBytes)"
vector 306 NetworkModified.host[14].wlan[0].mac.dcf packetReceivedFromPeer:vector(packetBytes) ETV
attr interpolationmode none
attr title "packets received, vector(packetBytes)"
vector 307 NetworkModified.host[14].wlan[0].mac.dcf packetReceivedFromPeerMulticast:vector(packetBytes) ETV
attr interpolationmode none
attr source ieee80211Multicast(packetReceivedFromPeer)
attr title "packets received: multicast, vector(packetBytes)"
vector 308 NetworkModified.host[14].wlan[0].mac.dcf packetReceivedFromPeerWithoutRetry:vector(packetBytes) ETV
attr interpolationmode none
attr source ieee80211NotRetry(packetReceivedFromPeer)
attr title "packets received: without retry, vector(packetBytes)"
vector 309 NetworkModified.host[14].wlan[0].mac packetSentToUpper:vector(packetBytes) ETV
attr interpolationmode none
attr title "packets sent to upper layer, vector(packetBytes)"
vector 310 NetworkModified.host[0].wlan[0].mac.dcf packetReceivedFromPeer:vector(packetBytes) ETV
attr interpolationmode none
attr title "packets received, vector(packetBytes)"
vector 311 NetworkModified.host[0].wlan[0].mac.dcf packetReceivedFromPeerMulticast:vector(packetBytes) ETV
attr interpolationmode none
attr source ieee80211Multicast(packetReceivedFromPeer)
attr title "packets received: multicast, vector(packetBytes)"
vector 312 NetworkModified.host[0].wlan[0].mac.dcf packetReceivedFromPeerWithoutRetry:vector(packetBytes) ETV
attr interpolationmode none
attr source ieee80211NotRetry(packetReceivedFromPeer)
attr title "packets received: without retry, vector(packetBytes)"
vector 313 NetworkModified.host[0].wlan[0].mac packetSentToUpper:vector(packetBytes) ETV
attr interpolationmode none
attr title "packets sent to upper layer, vector(packetBytes)"
vector 314 NetworkModified.host[9].wlan[0].mac.dcf.channelAccess.pendingQueue packetPopped:vector(packetBytes) ETV
attr interpolationmode none
attr title "packet popped, vector(packetBytes)"
vector 315 NetworkModified.host[9].wlan[0].mac.dcf.channelAccess.pendingQueue queueingTime:vector ETV
attr interpolationmode none
attr source queueingTime(packetPopped)
attr title "queueing times, vector"
attr unit s
vector 316 NetworkModified.host[9].wlan[0].mac.dcf.channelAccess.inProgressFrames queueLength:vector ETV
attr interpolationmode sample-hold
attr source "count(packetEnqueued) - count(packetDequeued)"
attr title "queue length, vector"
vector 317 NetworkModified.host[9].wlan[0].mac.dcf datarateSelected:vector ETV
attr interpolationmode none
attr title "datarates selected, vector"
vector 318 NetworkModified.host[9].wlan[0].mac packetSentToLower:vector(packetBytes) ETV
attr interpolationmode none
attr title "packets sent to lower layer, vector(packetBytes)"
vector 319 NetworkModified.host[9].wlan[0].mac.dcf frameSequenceActive:vector ETV
attr interpolationmode sample-hold
attr source count(frameSequenceStarted)-count(frameSequenceFinished)
attr title "frame sequence active, vector"
vector 320 NetworkModified.host[9].wlan[0].radio transmissionState:vector ETV
attr interpolationmode sample-hold
attr source transmissionStateChanged
attr title "Radio transmission state, vector"
vector 321 NetworkModified.host[9].wlan[0].mac.dcf packetSentToPeer:vector(packetBytes) ETV
attr interpolationmode none
attr title "packets sent, vector(packetBytes)"
vector 322 NetworkModified.host[9].wlan[0].mac.dcf packetSentToPeerMulticast:vector(packetBytes) ETV
attr interpolationmode none
attr source ieee80211Multicast(packetSentToPeer)
attr title "packets sent: multicast, vector(packetBytes)"
vector 323 NetworkModified.host[9].wlan[0].mac.dcf packetSentToPeerWithoutRetry:vector(packetBytes) ETV
attr interpolationmode none
attr source ieee80211NotRetry(packetSentToPeer)
attr title "packets sent: without retry, vector(packetBytes)"
vector 324 NetworkModified.host[9].wlan[0].mac.dcf.channelAccess.inProgressFrames queueingTime:vector ETV
attr interpolationmode none
attr source queueingTime(packetDequeued)
attr title "queueing times, vector"
vector 325 NetworkModified.host[11].wlan[0].mac.dcf packetReceivedFromPeer:vector(packetBytes) ETV
attr interpolationmode none
attr title "packets received, vector(packetBytes)"
vector 326 NetworkModified.host[11].wlan[0].mac.dcf packetReceivedFromPeerMulticast:vector(packetBytes) ETV
attr interpolationmode none
attr source ieee80211Multicast(packetReceivedFromPeer)
attr title "packets received: multicast, vector(packetBytes)"
vector 327 NetworkModified.host[11].wlan[0].mac.dcf packetReceivedFromPeerWithoutRetry:vector(packetBytes) ETV
attr interpolationmode none
attr source ieee80211NotRetry(packetReceivedFromPeer)
attr title "packets received: without retry, vector(packetBytes)"
vector 328 NetworkModified.host[11].wlan[0].mac packetSentToUpper:vector(packetBytes) ETV
attr interpolationmode none
attr title "packets sent to upper layer, vector(packetBytes)"
[...]
408	438468 792 1407 14313 0.008495802843 0.068613807485 30 0 3 29 51
409	439260 404 1407 14362 0.008495802843 0.068695807485 15 0 22 148 2316
410	439664 1472 1407 14631 0.008495802843 0.069185807485 56 0 1 28 28
411	441136 571 1424 15092 0.008524657441 0.070028641395 20 160 160 3200 512000
412	441707 571 1424 15092 0.008524657441 0.070028641395 20 160 160 3200 512000
413	442278 571 1424 15092 0.008524657441 0.070028641395 20 160 160 3200 512000
414	442849 689 1424 15092 0.008524657441 0.070028641395 20 8.2e-05 0.001925388386 0.007060389078 6.9899991327299e-06
415	443538 483 1431 14491 0.008524657441 0.068968408826 17 126 126 2142 269892
416	444021 483 1431 14491 0.008524657441 0.068968408826 17 154 154 2618 403172
417	444504 898 1431 14655 0.008524657441 0.06921074239 34 0 3 33 53
418	445402 459 1431 14491 0.008524657441 0.068968408826 17 1 30 260 5584
419	445861 2475 1431 14654 0.008524657441 0.06921074239 94 0 1 47 47
420	448336 658 1437 15176 0.008524824223 0.070220808177 23 126 126 2898 365148
421	448994 658 1437 15176 0.008524824223 0.070220808177 23 154 154 3542 545468
422	449652 1143 1437 15176 0.008524824223 0.070220808177 43 0 6 82 250
423	450795 545 1437 14918 0.008524824223 0.069536474613 20 0 31 298 6128
424	451340 3107 1437 15171 0.008524824223 0.070220808177 117 0 1 59 59
425	454447 1080 1439 15103 0.008524991005 0.070028974959 38 154 160 5912 920048
426	455527 226 1439 11833 0.008524991005 0.051206519108 8 154 160 1256 197264
427	455753 226 1439 11833 0.008524991005 0.051206519108 8 154 160 1256 197264
428	455979 426 1457 14313 0.008565802843 0.068613807485 15 154 154 2310 355740
429	456405 511 1457 14313 0.008565802843 0.068613807485 15 7e-05 0.001865481238 0.008741100809 9.7940799536677e-06
430	456916 792 1457 14677 0.008565802843 0.069267807485 30 0 2 25 35
431	457708 501 1457 14632 0.008565802843 0.069185807485 15 24000000 24000000 360000000 8.64e+15
432	458209 426 1457 14632 0.008565802843 0.069185807485 15 154 154 2310 355740
433	458635 792 1457 14677 0.008565802843 0.069267807485 30 0 1 15 15
434	459427 1584 1458 14678 0.008565802843 0.069267807485 60 0 2 60 90
435	461011 426 1479 14677 0.008647802843 0.069267807485 15 154 154 2310 355740
436	461437 426 1479 14677 0.008647802843 0.069267807485 15 154 154 2310 355740
437	461863 426 1479 14677 0.008647802843 0.069267807485 15 154 154 2310 355740
438	462289 497 1479 14677 0.008647802843 0.069267807485 15 8.2e-05 0.000937612306 0.003313612306 1.6727408363626e-06
439	462786 967 1484 15020 0.008647969625 0.069908447548 34 154 160 5272 817648
440	463753 967 1484 15020 0.008647969625 0.069908447548 34 154 160 5272 817648
441	464720 967 1484 15020 0.008647969625 0.069908447548 34 154 160 5272 817648
442	465687 967 1484 15020 0.008647969625 0.069908447548 34 126 132 4320 549072
443	466654 342 1490 15023 0.008647969625 0.069908447548 12 108 108 1296 139968
444	466996 321 1490 15023 0.008647969625 0.069908447548 12 1 12 78 650
445	467317 342 1492 15024 0.008647969625 0.069908447548 12 100 100 1200 120000
446	467659 474 1492 15024 0.008647969625 0.069908447548 12 0.000548080617 0.006296942976 0.036263821373 0.00015026474943994
447	468133 318 1492 15024 0.008647969625 0.069908447548 12 0 3 21 57
448	468451 571 1544 14869 0.008814824223 0.069454474613 20 154 154 3080 474320
449	469022 755 1544 14869 0.008814824223 0.069454474613 20 7e-05 0.004243056206 0.029073210854 7.6155712047867e-05
450	469777 1035 1544 14918 0.008814824223 0.069536474613 39 0 2 46 72
451	470812 637 1544 14869 0.008814824223 0.069454474613 19 24000000 24000000 456000000 1.0944e+16
452	471449 542 1544 14869 0.008814824223 0.069454474613 19 154 154 2926 450604
453	471991 1008 1544 14918 0.008814824223 0.069536474613 38 0 1 19 19
454	472999 2016 1545 14919 0.008814824223 0.069536474613 76 0 2 76 114
455	475015 366 1581 15010 0.008880469971 0.069908280766 13 154 160 2020 313960
456	475381 366 1581 15010 0.008880469971 0.069908280766 13 154 160 2020 313960
457	475747 683 1603 14279 0.008880844003 0.068524334896 24 154 160 3714 574836
458	476430 427 1603 12693 0.008880844003 0.053478547557 15 154 160 2322 359508
459	476857 427 1603 12693 0.008880844003 0.053478547557 15 154 160 2322 359508
460	477284 427 1603 12693 0.008880844003 0.053478547557 15 154 160 2322 359508
461	477711 427 1603 12693 0.008880844003 0.053478547557 15 126 132 1902 241236
462	478138 56 1607 5137 0.008880844003 0.026695714633 2 126 126 252 31752
463	478194 56 1607 5137 0.008880844003 0.026695714633 2 154 154 308 47432
464	478250 104 1607 5509 0.008880844003 0.027085714633 4 0 1 2 2
465	478354 54 1607 5137 0.008880844003 0.026695714633 2 16 17 33 545
466	478408 156 1607 5508 0.008880844003 0.027085714633 6 0 1 3 3
467	478564 542 1613 14918 0.008896824223 0.069536474613 19 154 154 2926 450604
468	479106 542 1613 14918 0.008896824223 0.069536474613 19 154 154 2926 450604
469	479648 542 1613 14918 0.008896824223 0.069536474613 19 154 154 2926 450604
470	480190 690 1613 14918 0.008896824223 0.069536474613 19 8.2e-05 0.002877528103 0.011100724026 1.4582452927492e-05
471	480880 854 1619 15103 0.008896991005 0.070028974959 30 154 160 4656 722784
472	481734 854 1619 15103 0.008896991005 0.070028974959 30 154 160 4656 722784
473	482588 854 1619 15103 0.008896991005 0.070028974959 30 154 160 4656 722784
474	483442 854 1619 15103 0.008896991005 0.070028974959 30 126 132 3816 485568
475	484296 313 1627 14001 0.008896991005 0.068244307831 11 126 126 1386 174636
476	484609 313 1627 14001 0.008896991005 0.068244307831 11 154 154 1694 260876
477	484922 582 1627 14083 0.008896991005 0.068354307831 22 0 2 13 15
478	485504 296 1627 14001 0.008896991005 0.068244307831 11 0 31 135 2783
479	485800 794 1627 14082 0.008896991005 0.068354307831 30 0 1 15 15
480	486594 313 1668 14083 0.009026991005 0.068354307831 11 154 154 1694 260876
481	486907 361 1668 14083 0.009026991005 0.068354307831 11 5e-05 0.000954333564 0.003646333564 1.9882965513769e-06
482	487268 582 1668 14151 0.009026991005 0.068436307831 22 0 2 13 15
483	487850 368 1668 14083 0.009026991005 0.068354307831 11 24000000 24000000 264000000 6.336e+15
484	488218 313 1668 14083 0.009026991005 0.068354307831 11 154 154 1694 260876
485	488531 582 1668 14151 0.009026991005 0.068436307831 22 0 1 11 11
486	489113 1164 1669 14152 0.009026991005 0.068436307831 44 0 2 44 66
487	490277 313 1745 14151 0.009108991005 0.068436307831 11 154 154 1694 260876
488	490590 313 1745 14151 0.009108991005 0.068436307831 11 154 154 1694 260876
489	490903 313 1745 14151 0.009108991005 0.068436307831 11 154 154 1694 260876
490	491216 364 1745 14151 0.009108991005 0.068436307831 11 8.2e-05 0.000686333564 0.001506333564 5.3829376107294e-07
491	491580 169 1756 14608 0.009109324569 0.06914074239 6 154 160 930 144180
492	491749 169 1756 14608 0.009109324569 0.06914074239 6 154 160 930 144180
493	491918 483 1928 14655 0.009299324569 0.06921074239 17 154 154 2618 403172
494	492401 627 1928 14655 0.009299324569 0.06921074239 17 7e-05 0.001551528103 0.01049535855 9.0861753905018e-06
495	493028 898 1928 14709 0.009299324569 0.06929274239 34 0 2 35 53
496	493926 568 1928 14655 0.009299324569 0.06921074239 17 24000000 24000000 408000000 9.792e+15
497	494494 483 1928 14655 0.009299324569 0.06921074239 17 154 154 2618 403172
498	494977 898 1928 14709 0.009299324569 0.06929274239 34 0 1 17 17
499	495875 1796 1929 14711 0.009299324569 0.06929274239 68 0 2 68 102
500	497671 56 1951 5509 0.009322844003 0.027085714633 2 154 154 308 47432
501	497727 65 1951 5509 0.009322844003 0.027085714633 2 0.00039 0.000442 0.000832 3.47464e-07
502	497792 104 1951 5588 0.009322844003 0.027167714633 4 0 1 2 2
503	497896 66 1951 5509 0.009322844003 0.027085714633 2 24000000 24000000 48000000 1.152e+15
504	497962 56 1951 5509 0.009322844003 0.027085714633 2 154 154 308 47432
505	498018 104 1951 5588 0.009322844003 0.027167714633 4 0 1 2 2
506	498122 208 1952 5589 0.009322844003 0.027167714633 8 0 2 8 12
507	498330 227 2012 13683 0.009376636753 0.067453974267 8 154 160 1250 195380
508	498557 227 2012 13683 0.009376636753 0.067453974267 8 154 160 1250 195380
509	498784 483 2024 14709 0.009381324569 0.06929274239 17 154 154 2618 403172
510	499267 483 2024 14709 0.009381324569 0.06929274239 17 154 154 2618 403172
511	499750 483 2024 14709 0.009381324569 0.06929274239 17 154 154 2618 403172
512	500233 583 2024 14709 0.009381324569 0.06929274239 17 8.2e-05 0.001410667128 0.007653647132 7.3580039439841e-06
513	500816 199 2033 12692 0.009381491351 0.053478547557 7 154 160 1084 167896
514	501015 199 2033 12692 0.009381491351 0.053478547557 7 154 160 1084 167896
515	501214 56 2052 5588 0.009404844003 0.027167714633 2 154 154 308 47432
516	501270 56 2052 5588 0.009404844003 0.027167714633 2 154 154 308 47432
517	501326 56 2052 5588 0.009404844003 0.027167714633 2 154 154 308 47432
518	501382 64 2052 5588 0.009404844003 0.027167714633 2 8.2e-05 8.2e-05 0.000164 1.3448e-08
519	501446 254 2272 14509 0.009817358011 0.068969116422 9 126 126 1134 142884
520	501700 254 2272 14509 0.009817358011 0.068969116422 9 154 154 1386 213444
521	501954 474 2272 15187 0.009817358011 0.070278447548 18 0 2 15 21
522	502428 244 2272 14509 0.009817358011 0.068969116422 9 8 27 170 3596
523	502672 1216 2272 15186 0.009817358011 0.070278447548 46 0 1 23 23
524	503888 314 2384 12696 0.010077844695 0.053478547557 11 108 108 1188 128304
525	504202 294 2384 12696 0.010077844695 0.053478547557 11 1 11 66 506
526	504496 314 2385 12697 0.010077844695 0.053478547557 11 100 100 1100 110000
527	504810 434 2385 12697 0.010077844695 0.053478547557 11 0.000807361321 0.005035890116 0.03196541142 0.00010670710164173
528	505244 292 2385 12697 0.010077844695 0.053478547557 11 0 2 14 26
529	505536 365 2484 15035 0.010191330946 0.069908715325 13 154 160 2020 313960
530	505901 365 2484 15035 0.010191330946 0.069908715325 13 154 160 2020 313960
531	506266 256 2776 15187 0.010551303881 0.070278447548 9 154 154 1386 213444
532	506522 332 2776 15187 0.010551303881 0.070278447548 9 0.00027 0.001309331126 0.00580142311 4.4236092534617e-06
533	506854 449 2776 15187 0.010551303881 0.070278447548 17 0 2 15 21
534	507303 301 2776 15187 0.010551303881 0.070278447548 9 24000000 24000000 216000000 5.184e+15
535	507604 256 2776 15187 0.010551303881 0.070278447548 9 154 154 1386 213444
536	507860 449 2776 15187 0.010551303881 0.070278447548 17 0 1 9 9
537	508309 898 2777 15189 0.010551303881 0.070278447548 34 0 2 35 53
538	509207 227 2828 12360 0.010633303881 0.05279448177 8 154 154 1232 189728
539	509434 227 2828 12360 0.010633303881 0.05279448177 8 154 154 1232 189728
540	509661 227 2828 12360 0.010633303881 0.05279448177 8 154 154 1232 189728
541	509888 274 2828 12360 0.010633303881 0.05279448177 8 8.2e-05 0.001539194539 0.002853861667 2.8119566891472e-06
542	510162 225 2848 14217 0.010633804227 0.068485947202 8 154 160 1238 191612
543	510387 225 2848 14217 0.010633804227 0.068485947202 8 154 160 1238 191612
544	510612 311 2874 13399 0.010635858357 0.066827473921 11 154 154 1694 260876
545	510923 311 2874 13399 0.010635858357 0.066827473921 11 154 154 1694 260876
546	511234 56 3129 5237 0.011087538196 0.026807307139 2 126 126 252 31752
547	511290 56 3129 5237 0.011087538196 0.026807307139 2 154 154 308 47432
548	511346 104 3129 5615 0.011087538196 0.027169302497 4 0 1 2 2
549	511450 53 3129 5237 0.011087538196 0.026807307139 2 5 14 19 221
550	511503 104 3129 5614 0.011087538196 0.027169302497 4 0 1 2 2
551	511607 56 3223 5615 0.011237538196 0.027169302497 2 154 154 308 47432
552	511663 71 3223 5615 0.011237538196 0.027169302497 2 0.00015 0.000361995358 0.000511995358 1.5354063921355e-07
553	511734 104 3223 5637 0.011237538196 0.027251302497 4 0 1 2 2
554	511838 66 3223 5615 0.011237538196 0.027169302497 2 24000000 24000000 48000000 1.152e+15
555	511904 56 3223 5615 0.011237538196 0.027169302497 2 154 154 308 47432
556	511960 104 3223 5637 0.011237538196 0.027251302497 4 0 1 2 2
557	512064 208 3224 5639 0.011237538196 0.027251302497 8 0 2 8 12
558	512272 56 3316 5637 0.011319538196 0.027251302497 2 154 154 308 47432
559	512328 56 3316 5637 0.011319538196 0.027251302497 2 154 154 308 47432
560	512384 56 3316 5637 0.011319538196 0.027251302497 2 154 154 308 47432
561	512440 64 3316 5637 0.011319538196 0.027251302497 2 8.2e-05 8.2e-05 0.000164 1.3448e-08
562	512504 200 3756 14236 0.011962304573 0.068496307831 7 154 160 1084 167896
563	512704 200 3756 14236 0.011962304573 0.068496307831 7 154 160 1084 167896
564	512904 256 3808 14279 0.012022238786 0.068524334896 9 154 160 1392 215328
565	513160 256 3808 14279 0.012022238786 0.068524334896 9 154 160 1392 215328
566	513416 143 6244 13440 0.028049302497 0.066847547851 5 154 154 770 118580
567	513559 143 6244 13440 0.028049302497 0.066847547851 5 154 154 770 118580
6	513702 50 15234 15309 0.070338641395 0.070420641395 2 2 3 5 13
22	513752 52 15211 15278 0.070330447548 0.070412447548 2 2 3 5 13
36	513804 26 15256 15256 0.070360447548 0.070360447548 1 2 2 2 4
41	513830 52 15245 15291 0.070339642087 0.070412974959 2 1 2 3 5
42	513882 50 15213 15279 0.07033061433 0.07041261433 2 1 3 4 10
43	513932 52 15234 15309 0.070338641395 0.070420641395 2 0 1 1 1
47	513984 52 15221 15293 0.070330974959 0.070412974959 2 1 3 4 10
50	514036 50 15214 15280 0.07033061433 0.07041261433 2 1 3 4 10
51	514086 52 15211 15278 0.070330447548 0.070412447548 2 0 1 1 1
52	514138 50 15257 15281 0.07036061433 0.07041261433 2 1 2 3 5
53	514188 52 15236 15308 0.070338641395 0.070420641395 2 1 3 4 10
54	514240 52 15237 15315 0.070338808177 0.070420808177 2 1 3 4 10
58	514292 26 15256 15256 0.070360447548 0.070360447548 1 1 1 1 1
127	514318 54 15245 15291 0.070339642087 0.070412974959 2 0 1 1 1
158	514372 29 15297 15297 0.070412974959 0.070412974959 1 154 154 154 23716
159	514401 29 15297 15297 0.070412974959 0.070412974959 1 154 154 154 23716
160	514430 29 15297 15297 0.070412974959 0.070412974959 1 154 154 154 23716
161	514459 29 15297 15297 0.070412974959 0.070412974959 1 154 154 154 23716
162	514488 29 15297 15297 0.070412974959 0.070412974959 1 126 126 126 15876
199	514517 28 15283 15283 0.07041261433 0.07041261433 1 154 154 154 23716
200	514545 28 15283 15283 0.07041261433 0.07041261433 1 154 154 154 23716
201	514573 28 15283 15283 0.07041261433 0.07041261433 1 154 154 154 23716
202	514601 28 15283 15283 0.07041261433 0.07041261433 1 154 154 154 23716
203	514629 28 15283 15283 0.07041261433 0.07041261433 1 126 126 126 15876
208	514657 52 15214 15280 0.07033061433 0.07041261433 2 0 1 1 1
297	514709 28 15282 15282 0.07041261433 0.07041261433 1 154 154 154 23716
298	514737 28 15282 15282 0.07041261433 0.07041261433 1 154 154 154 23716
299	514765 28 15282 15282 0.07041261433 0.07041261433 1 154 154 154 23716
300	514793 28 15282 15282 0.07041261433 0.07041261433 1 154 154 154 23716
301	514821 28 15282 15282 0.07041261433 0.07041261433 1 126 126 126 15876
305	514849 29 15316 15316 0.070420808177 0.070420808177 1 160 160 160 25600
337	514878 52 15213 15279 0.07033061433 0.07041261433 2 0 1 1 1
343	514930 29 15310 15310 0.070420641395 0.070420641395 1 160 160 160 25600
344	514959 29 15310 15310 0.070420641395 0.070420641395 1 160 160 160 25600
345	514988 29 15310 15310 0.070420641395 0.070420641395 1 160 160 160 25600
346	515017 29 15310 15310 0.070420641395 0.070420641395 1 160 160 160 25600
347	515046 29 15310 15310 0.070420641395 0.070420641395 1 132 132 132 17424
363	515075 27 15210 15210 0.070330447548 0.070330447548 1 0 0 0 0
364	515102 28 15277 15277 0.070412447548 0.070412447548 1 11 11 11 121
365	515130 54 15209 15278 0.070330447548 0.070412447548 2 0 1 1 1
366	515184 29 15210 15210 0.070330447548 0.070330447548 1 154 154 154 23716
367	515213 33 15210 15210 0.070330447548 0.070330447548 1 0.00011 0.00011 0.00011 1.21e-08
368	515246 54 15210 15277 0.070330447548 0.070412447548 2 1 2 3 5
369	515300 34 15210 15210 0.070330447548 0.070330447548 1 24000000 24000000 24000000 5.76e+14
370	515334 29 15210 15210 0.070330447548 0.070330447548 1 154 154 154 23716
371	515363 54 15210 15277 0.070330447548 0.070412447548 2 0 1 1 1
372	515417 108 15211 15278 0.070330447548 0.070412447548 4 0 2 4 6
377	515525 27 15233 15233 0.070338641395 0.070338641395 1 0 0 0 0
378	515552 28 15307 15307 0.070420641395 0.070420641395 1 22 22 22 484
379	515580 54 15232 15309 0.070338641395 0.070420641395 2 0 1 1 1
380	515634 29 15233 15233 0.070338641395 0.070338641395 1 160 160 160 25600
381	515663 40 15233 15233 0.070338641395 0.070338641395 1 0.000954193847 0.000954193847 0.000954193847 9.1048589765266e-07
382	515703 54 15233 15307 0.070338641395 0.070420641395 2 1 2 3 5
383	515757 34 15233 15233 0.070338641395 0.070338641395 1 24000000 24000000 24000000 5.76e+14
384	515791 29 15233 15233 0.070338641395 0.070338641395 1 160 160 160 25600
385	515820 54 15233 15307 0.070338641395 0.070420641395 2 0 1 1 1
386	515874 108 15234 15309 0.070338641395 0.070420641395 4 0 2 4 6
395	515982 29 15277 15277 0.070412447548 0.070412447548 1 154 154 154 23716
396	516011 29 15277 15277 0.070412447548 0.070412447548 1 154 154 154 23716
397	516040 29 15277 15277 0.070412447548 0.070412447548 1 154 154 154 23716
398	516069 40 15277 15277 0.070412447548 0.070412447548 1 0.000586333564 0.000586333564 0.000586333564 3.4378704827294e-07
401	516109 28 15258 15258 0.07036061433 0.07036061433 1 154 154 154 23716
411	516137 29 15307 15307 0.070420641395 0.070420641395 1 160 160 160 25600
412	516166 29 15307 15307 0.070420641395 0.070420641395 1 160 160 160 25600
413	516195 29 15307 15307 0.070420641395 0.070420641395 1 160 160 160 25600
414	516224 34 15307 15307 0.070420641395 0.070420641395 1 0.000474 0.000474 0.000474 2.24676e-07
415	516258 29 15314 15314 0.070420641395 0.070420641395 1 126 126 126 15876
416	516287 29 15314 15314 0.070420641395 0.070420641395 1 154 154 154 23716
417	516316 27 15314 15314 0.070420641395 0.070420641395 1 1 1 1 1
418	516343 28 15314 15314 0.070420641395 0.070420641395 1 27 27 27 729
419	516371 27 15314 15314 0.070420641395 0.070420641395 1 1 1 1 1
424	516398 108 15237 15316 0.070338808177 0.070420808177 4 0 1 2 2
455	516506 28 15258 15258 0.07036061433 0.07036061433 1 154 154 154 23716
456	516534 28 15258 15258 0.07036061433 0.07036061433 1 154 154 154 23716
513	516562 29 15316 15316 0.070420808177 0.070420808177 1 160 160 160 25600
514	516591 29 15316 15316 0.070420808177 0.070420808177 1 160 160 160 25600
533	516620 27 15255 15255 0.070360447548 0.070360447548 1 0 0 0 0
536	516647 27 15255 15255 0.070360447548 0.070360447548 1 0 0 0 0
537	516674 54 15255 15256 0.070360447548 0.070360447548 2 0 1 1 1
538	516728 29 15255 15255 0.070360447548 0.070360447548 1 154 154 154 23716
539	516757 29 15255 15255 0.070360447548 0.070360447548 1 154 154 154 23716
540	516786 29 15255 15255 0.070360447548 0.070360447548 1 154 154 154 23716
541	516815 33 15255 15255 0.070360447548 0.070360447548 1 8.2e-05 8.2e-05 8.2e-05 6.724e-09
4	516848 24 15336 15336 0.07052261433 0.07052261433 1 3 3 3 9
42	516872 25 15336 15336 0.07052261433 0.07052261433 1 0 0 0 0
50	516897 25 15338 15338 0.07052261433 0.07052261433 1 3 3 3 9
51	516922 26 15339 15339 0.070522781112 0.070522781112 1 3 3 3 9
52	516948 26 15340 15340 0.070522947894 0.070522947894 1 3 3 3 9
208	516974 26 15338 15338 0.07052261433 0.07052261433 1 0 0 0 0
335	517000 52 15335 15335 0.07052261433 0.07052261433 2 1 2 3 5
337	517052 26 15334 15334 0.07052261433 0.07052261433 1 0 0 0 0
348	517078 56 15335 15335 0.07052261433 0.07052261433 2 160 160 320 51200
349	517134 78 15335 15335 0.07052261433 0.07052261433 2 0.000614333564 0.001138667128 0.001753000692 1.6739685562447e-06
350	517212 52 15335 15335 0.07052261433 0.07052261433 2 1 2 3 5
351	517264 33 15335 15335 0.07052261433 0.07052261433 1 24000000 24000000 24000000 5.76e+14
352	517297 28 15335 15335 0.07052261433 0.07052261433 1 160 160 160 25600
353	517325 26 15335 15335 0.07052261433 0.07052261433 1 1 1 1 1
354	517351 52 15336 15337 0.07052261433 0.07052261433 2 1 2 3 5
365	517403 27 15339 15339 0.070522781112 0.070522781112 1 0 0 0 0

